gem5 Simulator System.  https://www.gem5.org
gem5 is copyrighted software; use the --copyright option for details.

gem5 version 24.0.0.0
gem5 compiled Jul 28 2024 19:24:53
gem5 started Jul 28 2024 19:35:01
gem5 executing on codespaces-0414b5, pid 213426
command line: /workspaces/2024/gem5/build/X86/gem5.fast -re simple-sim.py

Global frequency set at 1000000000000 ticks per second
Running with 8 threads
Reached workbegin, now start listening for instructions
Max Inst exit event triggered
Reached 1
Fall back to simulation
Max Inst exit event triggered
Reached 2
Fall back to simulation
Max Inst exit event triggered
Reached 3
Fall back to simulation
Max Inst exit event triggered
Reached 4
Fall back to simulation
Max Inst exit event triggered
Reached 5
Fall back to simulation
Max Inst exit event triggered
Reached 6
Fall back to simulation
Max Inst exit event triggered
Reached 7
Fall back to simulation
All 8 cores have reached the max instruction threshold
Now stop listening for instructions
Reached workend
Sum: 332833500000
Simulation Done
