gem5 Simulator System.  https://www.gem5.org
gem5 is copyrighted software; use the --copyright option for details.

gem5 version 24.0.0.0
gem5 compiled Jul 28 2024 19:51:38
gem5 started Jul 28 2024 19:52:11
gem5 executing on codespaces-0414b5, pid 229968
command line: /workspaces/2024/gem5/build/X86/gem5.fast -re --outdir=simple-sim-m5out simple-sim.py

Global frequency set at 1000000000000 ticks per second
Running with 8 threads
Reached workbegin
Dump and reset stats
Start listening for instructions
Reached MAX_INSTS
Exiting simulation
Simulation Done
