
---------- Begin Simulation Statistics ----------
simSeconds                                   0.001000                       # Number of seconds simulated (Second)
simTicks                                   1000000000                       # Number of ticks simulated (Tick)
finalTick                                  1000000000                       # Number of ticks from beginning of simulation (restored from checkpoints and never reset) (Tick)
simFreq                                  1000000000000                       # The number of ticks per simulated second ((Tick/Second))
hostSeconds                                      0.17                       # Real time elapsed on the host (Second)
hostTickRate                               5901585166                       # The number of ticks simulated per host second (ticks/s) ((Tick/Second))
hostMemory                                     641172                       # Number of bytes of host memory used (Byte)
system.clk_domain.clock                          1000                       # Clock period in ticks (Tick)
system.clk_domain.voltage_domain.voltage            1                       # Voltage in Volts (Volt)
system.comm_monitor.readBurstLengthHist::samples        49358                       # Histogram of burst lengths of transmitted packets (Byte)
system.comm_monitor.readBurstLengthHist::mean           64                       # Histogram of burst lengths of transmitted packets (Byte)
system.comm_monitor.readBurstLengthHist::gmean    64.000000                       # Histogram of burst lengths of transmitted packets (Byte)
system.comm_monitor.readBurstLengthHist::stdev            0                       # Histogram of burst lengths of transmitted packets (Byte)
system.comm_monitor.readBurstLengthHist::0-3            0      0.00%      0.00% # Histogram of burst lengths of transmitted packets (Byte)
system.comm_monitor.readBurstLengthHist::4-7            0      0.00%      0.00% # Histogram of burst lengths of transmitted packets (Byte)
system.comm_monitor.readBurstLengthHist::8-11            0      0.00%      0.00% # Histogram of burst lengths of transmitted packets (Byte)
system.comm_monitor.readBurstLengthHist::12-15            0      0.00%      0.00% # Histogram of burst lengths of transmitted packets (Byte)
system.comm_monitor.readBurstLengthHist::16-19            0      0.00%      0.00% # Histogram of burst lengths of transmitted packets (Byte)
system.comm_monitor.readBurstLengthHist::20-23            0      0.00%      0.00% # Histogram of burst lengths of transmitted packets (Byte)
system.comm_monitor.readBurstLengthHist::24-27            0      0.00%      0.00% # Histogram of burst lengths of transmitted packets (Byte)
system.comm_monitor.readBurstLengthHist::28-31            0      0.00%      0.00% # Histogram of burst lengths of transmitted packets (Byte)
system.comm_monitor.readBurstLengthHist::32-35            0      0.00%      0.00% # Histogram of burst lengths of transmitted packets (Byte)
system.comm_monitor.readBurstLengthHist::36-39            0      0.00%      0.00% # Histogram of burst lengths of transmitted packets (Byte)
system.comm_monitor.readBurstLengthHist::40-43            0      0.00%      0.00% # Histogram of burst lengths of transmitted packets (Byte)
system.comm_monitor.readBurstLengthHist::44-47            0      0.00%      0.00% # Histogram of burst lengths of transmitted packets (Byte)
system.comm_monitor.readBurstLengthHist::48-51            0      0.00%      0.00% # Histogram of burst lengths of transmitted packets (Byte)
system.comm_monitor.readBurstLengthHist::52-55            0      0.00%      0.00% # Histogram of burst lengths of transmitted packets (Byte)
system.comm_monitor.readBurstLengthHist::56-59            0      0.00%      0.00% # Histogram of burst lengths of transmitted packets (Byte)
system.comm_monitor.readBurstLengthHist::60-63            0      0.00%      0.00% # Histogram of burst lengths of transmitted packets (Byte)
system.comm_monitor.readBurstLengthHist::64-67        49358    100.00%    100.00% # Histogram of burst lengths of transmitted packets (Byte)
system.comm_monitor.readBurstLengthHist::68-71            0      0.00%    100.00% # Histogram of burst lengths of transmitted packets (Byte)
system.comm_monitor.readBurstLengthHist::72-75            0      0.00%    100.00% # Histogram of burst lengths of transmitted packets (Byte)
system.comm_monitor.readBurstLengthHist::76-79            0      0.00%    100.00% # Histogram of burst lengths of transmitted packets (Byte)
system.comm_monitor.readBurstLengthHist::total        49358                       # Histogram of burst lengths of transmitted packets (Byte)
system.comm_monitor.writeBurstLengthHist::samples        33970                       # Histogram of burst lengths of transmitted packets (Byte)
system.comm_monitor.writeBurstLengthHist::mean           64                       # Histogram of burst lengths of transmitted packets (Byte)
system.comm_monitor.writeBurstLengthHist::gmean    64.000000                       # Histogram of burst lengths of transmitted packets (Byte)
system.comm_monitor.writeBurstLengthHist::stdev            0                       # Histogram of burst lengths of transmitted packets (Byte)
system.comm_monitor.writeBurstLengthHist::0-3            0      0.00%      0.00% # Histogram of burst lengths of transmitted packets (Byte)
system.comm_monitor.writeBurstLengthHist::4-7            0      0.00%      0.00% # Histogram of burst lengths of transmitted packets (Byte)
system.comm_monitor.writeBurstLengthHist::8-11            0      0.00%      0.00% # Histogram of burst lengths of transmitted packets (Byte)
system.comm_monitor.writeBurstLengthHist::12-15            0      0.00%      0.00% # Histogram of burst lengths of transmitted packets (Byte)
system.comm_monitor.writeBurstLengthHist::16-19            0      0.00%      0.00% # Histogram of burst lengths of transmitted packets (Byte)
system.comm_monitor.writeBurstLengthHist::20-23            0      0.00%      0.00% # Histogram of burst lengths of transmitted packets (Byte)
system.comm_monitor.writeBurstLengthHist::24-27            0      0.00%      0.00% # Histogram of burst lengths of transmitted packets (Byte)
system.comm_monitor.writeBurstLengthHist::28-31            0      0.00%      0.00% # Histogram of burst lengths of transmitted packets (Byte)
system.comm_monitor.writeBurstLengthHist::32-35            0      0.00%      0.00% # Histogram of burst lengths of transmitted packets (Byte)
system.comm_monitor.writeBurstLengthHist::36-39            0      0.00%      0.00% # Histogram of burst lengths of transmitted packets (Byte)
system.comm_monitor.writeBurstLengthHist::40-43            0      0.00%      0.00% # Histogram of burst lengths of transmitted packets (Byte)
system.comm_monitor.writeBurstLengthHist::44-47            0      0.00%      0.00% # Histogram of burst lengths of transmitted packets (Byte)
system.comm_monitor.writeBurstLengthHist::48-51            0      0.00%      0.00% # Histogram of burst lengths of transmitted packets (Byte)
system.comm_monitor.writeBurstLengthHist::52-55            0      0.00%      0.00% # Histogram of burst lengths of transmitted packets (Byte)
system.comm_monitor.writeBurstLengthHist::56-59            0      0.00%      0.00% # Histogram of burst lengths of transmitted packets (Byte)
system.comm_monitor.writeBurstLengthHist::60-63            0      0.00%      0.00% # Histogram of burst lengths of transmitted packets (Byte)
system.comm_monitor.writeBurstLengthHist::64-67        33970    100.00%    100.00% # Histogram of burst lengths of transmitted packets (Byte)
system.comm_monitor.writeBurstLengthHist::68-71            0      0.00%    100.00% # Histogram of burst lengths of transmitted packets (Byte)
system.comm_monitor.writeBurstLengthHist::72-75            0      0.00%    100.00% # Histogram of burst lengths of transmitted packets (Byte)
system.comm_monitor.writeBurstLengthHist::76-79            0      0.00%    100.00% # Histogram of burst lengths of transmitted packets (Byte)
system.comm_monitor.writeBurstLengthHist::total        33970                       # Histogram of burst lengths of transmitted packets (Byte)
system.comm_monitor.readBandwidthHist::samples            1                       # Histogram of read bandwidth per sample period ((Byte/Second))
system.comm_monitor.readBandwidthHist::mean   3158784000                       # Histogram of read bandwidth per sample period ((Byte/Second))
system.comm_monitor.readBandwidthHist::gmean 3158784000.000003                       # Histogram of read bandwidth per sample period ((Byte/Second))
system.comm_monitor.readBandwidthHist::stdev          nan                       # Histogram of read bandwidth per sample period ((Byte/Second))
system.comm_monitor.readBandwidthHist::0-2.68435e+08            0      0.00%      0.00% # Histogram of read bandwidth per sample period ((Byte/Second))
system.comm_monitor.readBandwidthHist::2.68435e+08-5.36871e+08            0      0.00%      0.00% # Histogram of read bandwidth per sample period ((Byte/Second))
system.comm_monitor.readBandwidthHist::5.36871e+08-8.05306e+08            0      0.00%      0.00% # Histogram of read bandwidth per sample period ((Byte/Second))
system.comm_monitor.readBandwidthHist::8.05306e+08-1.07374e+09            0      0.00%      0.00% # Histogram of read bandwidth per sample period ((Byte/Second))
system.comm_monitor.readBandwidthHist::1.07374e+09-1.34218e+09            0      0.00%      0.00% # Histogram of read bandwidth per sample period ((Byte/Second))
system.comm_monitor.readBandwidthHist::1.34218e+09-1.61061e+09            0      0.00%      0.00% # Histogram of read bandwidth per sample period ((Byte/Second))
system.comm_monitor.readBandwidthHist::1.61061e+09-1.87905e+09            0      0.00%      0.00% # Histogram of read bandwidth per sample period ((Byte/Second))
system.comm_monitor.readBandwidthHist::1.87905e+09-2.14748e+09            0      0.00%      0.00% # Histogram of read bandwidth per sample period ((Byte/Second))
system.comm_monitor.readBandwidthHist::2.14748e+09-2.41592e+09            0      0.00%      0.00% # Histogram of read bandwidth per sample period ((Byte/Second))
system.comm_monitor.readBandwidthHist::2.41592e+09-2.68435e+09            0      0.00%      0.00% # Histogram of read bandwidth per sample period ((Byte/Second))
system.comm_monitor.readBandwidthHist::2.68435e+09-2.95279e+09            0      0.00%      0.00% # Histogram of read bandwidth per sample period ((Byte/Second))
system.comm_monitor.readBandwidthHist::2.95279e+09-3.22123e+09            1    100.00%    100.00% # Histogram of read bandwidth per sample period ((Byte/Second))
system.comm_monitor.readBandwidthHist::3.22123e+09-3.48966e+09            0      0.00%    100.00% # Histogram of read bandwidth per sample period ((Byte/Second))
system.comm_monitor.readBandwidthHist::3.48966e+09-3.7581e+09            0      0.00%    100.00% # Histogram of read bandwidth per sample period ((Byte/Second))
system.comm_monitor.readBandwidthHist::3.7581e+09-4.02653e+09            0      0.00%    100.00% # Histogram of read bandwidth per sample period ((Byte/Second))
system.comm_monitor.readBandwidthHist::4.02653e+09-4.29497e+09            0      0.00%    100.00% # Histogram of read bandwidth per sample period ((Byte/Second))
system.comm_monitor.readBandwidthHist::4.29497e+09-4.5634e+09            0      0.00%    100.00% # Histogram of read bandwidth per sample period ((Byte/Second))
system.comm_monitor.readBandwidthHist::4.5634e+09-4.83184e+09            0      0.00%    100.00% # Histogram of read bandwidth per sample period ((Byte/Second))
system.comm_monitor.readBandwidthHist::4.83184e+09-5.10027e+09            0      0.00%    100.00% # Histogram of read bandwidth per sample period ((Byte/Second))
system.comm_monitor.readBandwidthHist::5.10027e+09-5.36871e+09            0      0.00%    100.00% # Histogram of read bandwidth per sample period ((Byte/Second))
system.comm_monitor.readBandwidthHist::total            1                       # Histogram of read bandwidth per sample period ((Byte/Second))
system.comm_monitor.totalReadBytes            3158784                       # Number of bytes read (Byte)
system.comm_monitor.averageReadBandwidth   3158784000      0.00%      0.00% # Average read bandwidth ((Byte/Second))
system.comm_monitor.writeBandwidthHist::samples            1                       # Histogram of write bandwidth ((Byte/Second))
system.comm_monitor.writeBandwidthHist::mean   2174080000                       # Histogram of write bandwidth ((Byte/Second))
system.comm_monitor.writeBandwidthHist::gmean 2174079999.999996                       # Histogram of write bandwidth ((Byte/Second))
system.comm_monitor.writeBandwidthHist::stdev          nan                       # Histogram of write bandwidth ((Byte/Second))
system.comm_monitor.writeBandwidthHist::0-1.34218e+08            0      0.00%      0.00% # Histogram of write bandwidth ((Byte/Second))
system.comm_monitor.writeBandwidthHist::1.34218e+08-2.68435e+08            0      0.00%      0.00% # Histogram of write bandwidth ((Byte/Second))
system.comm_monitor.writeBandwidthHist::2.68435e+08-4.02653e+08            0      0.00%      0.00% # Histogram of write bandwidth ((Byte/Second))
system.comm_monitor.writeBandwidthHist::4.02653e+08-5.36871e+08            0      0.00%      0.00% # Histogram of write bandwidth ((Byte/Second))
system.comm_monitor.writeBandwidthHist::5.36871e+08-6.71089e+08            0      0.00%      0.00% # Histogram of write bandwidth ((Byte/Second))
system.comm_monitor.writeBandwidthHist::6.71089e+08-8.05306e+08            0      0.00%      0.00% # Histogram of write bandwidth ((Byte/Second))
system.comm_monitor.writeBandwidthHist::8.05306e+08-9.39524e+08            0      0.00%      0.00% # Histogram of write bandwidth ((Byte/Second))
system.comm_monitor.writeBandwidthHist::9.39524e+08-1.07374e+09            0      0.00%      0.00% # Histogram of write bandwidth ((Byte/Second))
system.comm_monitor.writeBandwidthHist::1.07374e+09-1.20796e+09            0      0.00%      0.00% # Histogram of write bandwidth ((Byte/Second))
system.comm_monitor.writeBandwidthHist::1.20796e+09-1.34218e+09            0      0.00%      0.00% # Histogram of write bandwidth ((Byte/Second))
system.comm_monitor.writeBandwidthHist::1.34218e+09-1.4764e+09            0      0.00%      0.00% # Histogram of write bandwidth ((Byte/Second))
system.comm_monitor.writeBandwidthHist::1.4764e+09-1.61061e+09            0      0.00%      0.00% # Histogram of write bandwidth ((Byte/Second))
system.comm_monitor.writeBandwidthHist::1.61061e+09-1.74483e+09            0      0.00%      0.00% # Histogram of write bandwidth ((Byte/Second))
system.comm_monitor.writeBandwidthHist::1.74483e+09-1.87905e+09            0      0.00%      0.00% # Histogram of write bandwidth ((Byte/Second))
system.comm_monitor.writeBandwidthHist::1.87905e+09-2.01327e+09            0      0.00%      0.00% # Histogram of write bandwidth ((Byte/Second))
system.comm_monitor.writeBandwidthHist::2.01327e+09-2.14748e+09            0      0.00%      0.00% # Histogram of write bandwidth ((Byte/Second))
system.comm_monitor.writeBandwidthHist::2.14748e+09-2.2817e+09            1    100.00%    100.00% # Histogram of write bandwidth ((Byte/Second))
system.comm_monitor.writeBandwidthHist::2.2817e+09-2.41592e+09            0      0.00%    100.00% # Histogram of write bandwidth ((Byte/Second))
system.comm_monitor.writeBandwidthHist::2.41592e+09-2.55014e+09            0      0.00%    100.00% # Histogram of write bandwidth ((Byte/Second))
system.comm_monitor.writeBandwidthHist::2.55014e+09-2.68435e+09            0      0.00%    100.00% # Histogram of write bandwidth ((Byte/Second))
system.comm_monitor.writeBandwidthHist::total            1                       # Histogram of write bandwidth ((Byte/Second))
system.comm_monitor.totalWrittenBytes         2174080                       # Number of bytes written ((Byte/Second))
system.comm_monitor.averageWriteBandwidth   2174080000      0.00%      0.00% # Average write bandwidth ((Byte/Second))
system.comm_monitor.readLatencyHist::samples        49356                       # Read request-response latency (Tick)
system.comm_monitor.readLatencyHist::mean 94945.077437                       # Read request-response latency (Tick)
system.comm_monitor.readLatencyHist::gmean 76966.822010                       # Read request-response latency (Tick)
system.comm_monitor.readLatencyHist::stdev 74805.354628                       # Read request-response latency (Tick)
system.comm_monitor.readLatencyHist::0-32767            0      0.00%      0.00% # Read request-response latency (Tick)
system.comm_monitor.readLatencyHist::32768-65535        26443     53.58%     53.58% # Read request-response latency (Tick)
system.comm_monitor.readLatencyHist::65536-98303         6019     12.20%     65.77% # Read request-response latency (Tick)
system.comm_monitor.readLatencyHist::98304-131071         5274     10.69%     76.46% # Read request-response latency (Tick)
system.comm_monitor.readLatencyHist::131072-163839         4680      9.48%     85.94% # Read request-response latency (Tick)
system.comm_monitor.readLatencyHist::163840-196607         3916      7.93%     93.87% # Read request-response latency (Tick)
system.comm_monitor.readLatencyHist::196608-229375          850      1.72%     95.60% # Read request-response latency (Tick)
system.comm_monitor.readLatencyHist::229376-262143          361      0.73%     96.33% # Read request-response latency (Tick)
system.comm_monitor.readLatencyHist::262144-294911          294      0.60%     96.92% # Read request-response latency (Tick)
system.comm_monitor.readLatencyHist::294912-327679          305      0.62%     97.54% # Read request-response latency (Tick)
system.comm_monitor.readLatencyHist::327680-360447          292      0.59%     98.13% # Read request-response latency (Tick)
system.comm_monitor.readLatencyHist::360448-393215          294      0.60%     98.73% # Read request-response latency (Tick)
system.comm_monitor.readLatencyHist::393216-425983          248      0.50%     99.23% # Read request-response latency (Tick)
system.comm_monitor.readLatencyHist::425984-458751          117      0.24%     99.47% # Read request-response latency (Tick)
system.comm_monitor.readLatencyHist::458752-491519           83      0.17%     99.64% # Read request-response latency (Tick)
system.comm_monitor.readLatencyHist::491520-524287           68      0.14%     99.77% # Read request-response latency (Tick)
system.comm_monitor.readLatencyHist::524288-557055           64      0.13%     99.90% # Read request-response latency (Tick)
system.comm_monitor.readLatencyHist::557056-589823           34      0.07%     99.97% # Read request-response latency (Tick)
system.comm_monitor.readLatencyHist::589824-622591           14      0.03%    100.00% # Read request-response latency (Tick)
system.comm_monitor.readLatencyHist::622592-655359            0      0.00%    100.00% # Read request-response latency (Tick)
system.comm_monitor.readLatencyHist::total        49356                       # Read request-response latency (Tick)
system.comm_monitor.writeLatencyHist::samples        33968                       # Write request-response latency (Tick)
system.comm_monitor.writeLatencyHist::mean 19295.184880                       # Write request-response latency (Tick)
system.comm_monitor.writeLatencyHist::gmean 19291.010111                       # Write request-response latency (Tick)
system.comm_monitor.writeLatencyHist::stdev   409.943163                       # Write request-response latency (Tick)
system.comm_monitor.writeLatencyHist::0-2047            0      0.00%      0.00% # Write request-response latency (Tick)
system.comm_monitor.writeLatencyHist::2048-4095            0      0.00%      0.00% # Write request-response latency (Tick)
system.comm_monitor.writeLatencyHist::4096-6143            0      0.00%      0.00% # Write request-response latency (Tick)
system.comm_monitor.writeLatencyHist::6144-8191            0      0.00%      0.00% # Write request-response latency (Tick)
system.comm_monitor.writeLatencyHist::8192-10239            0      0.00%      0.00% # Write request-response latency (Tick)
system.comm_monitor.writeLatencyHist::10240-12287            0      0.00%      0.00% # Write request-response latency (Tick)
system.comm_monitor.writeLatencyHist::12288-14335            0      0.00%      0.00% # Write request-response latency (Tick)
system.comm_monitor.writeLatencyHist::14336-16383            0      0.00%      0.00% # Write request-response latency (Tick)
system.comm_monitor.writeLatencyHist::16384-18431            0      0.00%      0.00% # Write request-response latency (Tick)
system.comm_monitor.writeLatencyHist::18432-20479        33019     97.21%     97.21% # Write request-response latency (Tick)
system.comm_monitor.writeLatencyHist::20480-22527          949      2.79%    100.00% # Write request-response latency (Tick)
system.comm_monitor.writeLatencyHist::22528-24575            0      0.00%    100.00% # Write request-response latency (Tick)
system.comm_monitor.writeLatencyHist::24576-26623            0      0.00%    100.00% # Write request-response latency (Tick)
system.comm_monitor.writeLatencyHist::26624-28671            0      0.00%    100.00% # Write request-response latency (Tick)
system.comm_monitor.writeLatencyHist::28672-30719            0      0.00%    100.00% # Write request-response latency (Tick)
system.comm_monitor.writeLatencyHist::30720-32767            0      0.00%    100.00% # Write request-response latency (Tick)
system.comm_monitor.writeLatencyHist::32768-34815            0      0.00%    100.00% # Write request-response latency (Tick)
system.comm_monitor.writeLatencyHist::34816-36863            0      0.00%    100.00% # Write request-response latency (Tick)
system.comm_monitor.writeLatencyHist::36864-38911            0      0.00%    100.00% # Write request-response latency (Tick)
system.comm_monitor.writeLatencyHist::38912-40959            0      0.00%    100.00% # Write request-response latency (Tick)
system.comm_monitor.writeLatencyHist::total        33968                       # Write request-response latency (Tick)
system.comm_monitor.ittReadRead::samples        49357                       # Read-to-read inter transaction time (Tick)
system.comm_monitor.ittReadRead::mean    20259.752578                       # Read-to-read inter transaction time (Tick)
system.comm_monitor.ittReadRead::stdev   12747.406214                       # Read-to-read inter transaction time (Tick)
system.comm_monitor.ittReadRead::underflows            0      0.00%      0.00% # Read-to-read inter transaction time (Tick)
system.comm_monitor.ittReadRead::1-5000             0      0.00%      0.00% # Read-to-read inter transaction time (Tick)
system.comm_monitor.ittReadRead::5001-10000            0      0.00%      0.00% # Read-to-read inter transaction time (Tick)
system.comm_monitor.ittReadRead::10001-15000        29088     58.93%     58.93% # Read-to-read inter transaction time (Tick)
system.comm_monitor.ittReadRead::15001-20000            0      0.00%     58.93% # Read-to-read inter transaction time (Tick)
system.comm_monitor.ittReadRead::20001-25000        11961     24.23%     83.17% # Read-to-read inter transaction time (Tick)
system.comm_monitor.ittReadRead::25001-30000            0      0.00%     83.17% # Read-to-read inter transaction time (Tick)
system.comm_monitor.ittReadRead::30001-35000            0      0.00%     83.17% # Read-to-read inter transaction time (Tick)
system.comm_monitor.ittReadRead::35001-40000         5016     10.16%     93.33% # Read-to-read inter transaction time (Tick)
system.comm_monitor.ittReadRead::40001-45000            0      0.00%     93.33% # Read-to-read inter transaction time (Tick)
system.comm_monitor.ittReadRead::45001-50000         2002      4.06%     97.39% # Read-to-read inter transaction time (Tick)
system.comm_monitor.ittReadRead::50001-55000            0      0.00%     97.39% # Read-to-read inter transaction time (Tick)
system.comm_monitor.ittReadRead::55001-60000          797      1.61%     99.00% # Read-to-read inter transaction time (Tick)
system.comm_monitor.ittReadRead::60001-65000            0      0.00%     99.00% # Read-to-read inter transaction time (Tick)
system.comm_monitor.ittReadRead::65001-70000            0      0.00%     99.00% # Read-to-read inter transaction time (Tick)
system.comm_monitor.ittReadRead::70001-75000          300      0.61%     99.61% # Read-to-read inter transaction time (Tick)
system.comm_monitor.ittReadRead::75001-80000            0      0.00%     99.61% # Read-to-read inter transaction time (Tick)
system.comm_monitor.ittReadRead::80001-85000          118      0.24%     99.85% # Read-to-read inter transaction time (Tick)
system.comm_monitor.ittReadRead::85001-90000            0      0.00%     99.85% # Read-to-read inter transaction time (Tick)
system.comm_monitor.ittReadRead::90001-95000            0      0.00%     99.85% # Read-to-read inter transaction time (Tick)
system.comm_monitor.ittReadRead::95001-100000           44      0.09%     99.94% # Read-to-read inter transaction time (Tick)
system.comm_monitor.ittReadRead::overflows           31      0.06%    100.00% # Read-to-read inter transaction time (Tick)
system.comm_monitor.ittReadRead::min_value        12000                       # Read-to-read inter transaction time (Tick)
system.comm_monitor.ittReadRead::max_value       156000                       # Read-to-read inter transaction time (Tick)
system.comm_monitor.ittReadRead::total          49357                       # Read-to-read inter transaction time (Tick)
system.comm_monitor.ittWriteWrite::samples        33969                       # Write-to-write inter transaction time (Tick)
system.comm_monitor.ittWriteWrite::mean  29437.799405                       # Write-to-write inter transaction time (Tick)
system.comm_monitor.ittWriteWrite::stdev 22410.403783                       # Write-to-write inter transaction time (Tick)
system.comm_monitor.ittWriteWrite::underflows            0      0.00%      0.00% # Write-to-write inter transaction time (Tick)
system.comm_monitor.ittWriteWrite::1-5000            0      0.00%      0.00% # Write-to-write inter transaction time (Tick)
system.comm_monitor.ittWriteWrite::5001-10000            0      0.00%      0.00% # Write-to-write inter transaction time (Tick)
system.comm_monitor.ittWriteWrite::10001-15000        13700     40.33%     40.33% # Write-to-write inter transaction time (Tick)
system.comm_monitor.ittWriteWrite::15001-20000            0      0.00%     40.33% # Write-to-write inter transaction time (Tick)
system.comm_monitor.ittWriteWrite::20001-25000         8290     24.40%     64.74% # Write-to-write inter transaction time (Tick)
system.comm_monitor.ittWriteWrite::25001-30000            0      0.00%     64.74% # Write-to-write inter transaction time (Tick)
system.comm_monitor.ittWriteWrite::30001-35000            0      0.00%     64.74% # Write-to-write inter transaction time (Tick)
system.comm_monitor.ittWriteWrite::35001-40000         4888     14.39%     79.13% # Write-to-write inter transaction time (Tick)
system.comm_monitor.ittWriteWrite::40001-45000            0      0.00%     79.13% # Write-to-write inter transaction time (Tick)
system.comm_monitor.ittWriteWrite::45001-50000         2933      8.63%     87.76% # Write-to-write inter transaction time (Tick)
system.comm_monitor.ittWriteWrite::50001-55000            0      0.00%     87.76% # Write-to-write inter transaction time (Tick)
system.comm_monitor.ittWriteWrite::55001-60000         1742      5.13%     92.89% # Write-to-write inter transaction time (Tick)
system.comm_monitor.ittWriteWrite::60001-65000            0      0.00%     92.89% # Write-to-write inter transaction time (Tick)
system.comm_monitor.ittWriteWrite::65001-70000            0      0.00%     92.89% # Write-to-write inter transaction time (Tick)
system.comm_monitor.ittWriteWrite::70001-75000         1001      2.95%     95.83% # Write-to-write inter transaction time (Tick)
system.comm_monitor.ittWriteWrite::75001-80000            0      0.00%     95.83% # Write-to-write inter transaction time (Tick)
system.comm_monitor.ittWriteWrite::80001-85000          568      1.67%     97.51% # Write-to-write inter transaction time (Tick)
system.comm_monitor.ittWriteWrite::85001-90000            1      0.00%     97.51% # Write-to-write inter transaction time (Tick)
system.comm_monitor.ittWriteWrite::90001-95000            0      0.00%     97.51% # Write-to-write inter transaction time (Tick)
system.comm_monitor.ittWriteWrite::95001-100000          365      1.07%     98.58% # Write-to-write inter transaction time (Tick)
system.comm_monitor.ittWriteWrite::overflows          481      1.42%    100.00% # Write-to-write inter transaction time (Tick)
system.comm_monitor.ittWriteWrite::min_value        10608                       # Write-to-write inter transaction time (Tick)
system.comm_monitor.ittWriteWrite::max_value       240000                       # Write-to-write inter transaction time (Tick)
system.comm_monitor.ittWriteWrite::total        33969                       # Write-to-write inter transaction time (Tick)
system.comm_monitor.ittReqReq::samples          83327                       # Request-to-request inter transaction time (Tick)
system.comm_monitor.ittReqReq::mean      12000.727351                       # Request-to-request inter transaction time (Tick)
system.comm_monitor.ittReqReq::stdev       254.247571                       # Request-to-request inter transaction time (Tick)
system.comm_monitor.ittReqReq::underflows            0      0.00%      0.00% # Request-to-request inter transaction time (Tick)
system.comm_monitor.ittReqReq::1-5000               1      0.00%      0.00% # Request-to-request inter transaction time (Tick)
system.comm_monitor.ittReqReq::5001-10000            0      0.00%      0.00% # Request-to-request inter transaction time (Tick)
system.comm_monitor.ittReqReq::10001-15000        83325    100.00%    100.00% # Request-to-request inter transaction time (Tick)
system.comm_monitor.ittReqReq::15001-20000            0      0.00%    100.00% # Request-to-request inter transaction time (Tick)
system.comm_monitor.ittReqReq::20001-25000            0      0.00%    100.00% # Request-to-request inter transaction time (Tick)
system.comm_monitor.ittReqReq::25001-30000            0      0.00%    100.00% # Request-to-request inter transaction time (Tick)
system.comm_monitor.ittReqReq::30001-35000            0      0.00%    100.00% # Request-to-request inter transaction time (Tick)
system.comm_monitor.ittReqReq::35001-40000            0      0.00%    100.00% # Request-to-request inter transaction time (Tick)
system.comm_monitor.ittReqReq::40001-45000            0      0.00%    100.00% # Request-to-request inter transaction time (Tick)
system.comm_monitor.ittReqReq::45001-50000            0      0.00%    100.00% # Request-to-request inter transaction time (Tick)
system.comm_monitor.ittReqReq::50001-55000            0      0.00%    100.00% # Request-to-request inter transaction time (Tick)
system.comm_monitor.ittReqReq::55001-60000            0      0.00%    100.00% # Request-to-request inter transaction time (Tick)
system.comm_monitor.ittReqReq::60001-65000            0      0.00%    100.00% # Request-to-request inter transaction time (Tick)
system.comm_monitor.ittReqReq::65001-70000            0      0.00%    100.00% # Request-to-request inter transaction time (Tick)
system.comm_monitor.ittReqReq::70001-75000            0      0.00%    100.00% # Request-to-request inter transaction time (Tick)
system.comm_monitor.ittReqReq::75001-80000            0      0.00%    100.00% # Request-to-request inter transaction time (Tick)
system.comm_monitor.ittReqReq::80001-85000            1      0.00%    100.00% # Request-to-request inter transaction time (Tick)
system.comm_monitor.ittReqReq::85001-90000            0      0.00%    100.00% # Request-to-request inter transaction time (Tick)
system.comm_monitor.ittReqReq::90001-95000            0      0.00%    100.00% # Request-to-request inter transaction time (Tick)
system.comm_monitor.ittReqReq::95001-100000            0      0.00%    100.00% # Request-to-request inter transaction time (Tick)
system.comm_monitor.ittReqReq::overflows            0      0.00%    100.00% # Request-to-request inter transaction time (Tick)
system.comm_monitor.ittReqReq::min_value         1392                       # Request-to-request inter transaction time (Tick)
system.comm_monitor.ittReqReq::max_value        84608                       # Request-to-request inter transaction time (Tick)
system.comm_monitor.ittReqReq::total            83327                       # Request-to-request inter transaction time (Tick)
system.comm_monitor.outstandingReadsHist::samples            1                       # Outstanding read transactions (Count)
system.comm_monitor.outstandingReadsHist::mean            2                       # Outstanding read transactions (Count)
system.comm_monitor.outstandingReadsHist::gmean            2                       # Outstanding read transactions (Count)
system.comm_monitor.outstandingReadsHist::stdev          nan                       # Outstanding read transactions (Count)
system.comm_monitor.outstandingReadsHist::0            0      0.00%      0.00% # Outstanding read transactions (Count)
system.comm_monitor.outstandingReadsHist::1            0      0.00%      0.00% # Outstanding read transactions (Count)
system.comm_monitor.outstandingReadsHist::2            1    100.00%    100.00% # Outstanding read transactions (Count)
system.comm_monitor.outstandingReadsHist::3            0      0.00%    100.00% # Outstanding read transactions (Count)
system.comm_monitor.outstandingReadsHist::4            0      0.00%    100.00% # Outstanding read transactions (Count)
system.comm_monitor.outstandingReadsHist::5            0      0.00%    100.00% # Outstanding read transactions (Count)
system.comm_monitor.outstandingReadsHist::6            0      0.00%    100.00% # Outstanding read transactions (Count)
system.comm_monitor.outstandingReadsHist::7            0      0.00%    100.00% # Outstanding read transactions (Count)
system.comm_monitor.outstandingReadsHist::8            0      0.00%    100.00% # Outstanding read transactions (Count)
system.comm_monitor.outstandingReadsHist::9            0      0.00%    100.00% # Outstanding read transactions (Count)
system.comm_monitor.outstandingReadsHist::10            0      0.00%    100.00% # Outstanding read transactions (Count)
system.comm_monitor.outstandingReadsHist::11            0      0.00%    100.00% # Outstanding read transactions (Count)
system.comm_monitor.outstandingReadsHist::12            0      0.00%    100.00% # Outstanding read transactions (Count)
system.comm_monitor.outstandingReadsHist::13            0      0.00%    100.00% # Outstanding read transactions (Count)
system.comm_monitor.outstandingReadsHist::14            0      0.00%    100.00% # Outstanding read transactions (Count)
system.comm_monitor.outstandingReadsHist::15            0      0.00%    100.00% # Outstanding read transactions (Count)
system.comm_monitor.outstandingReadsHist::16            0      0.00%    100.00% # Outstanding read transactions (Count)
system.comm_monitor.outstandingReadsHist::17            0      0.00%    100.00% # Outstanding read transactions (Count)
system.comm_monitor.outstandingReadsHist::18            0      0.00%    100.00% # Outstanding read transactions (Count)
system.comm_monitor.outstandingReadsHist::19            0      0.00%    100.00% # Outstanding read transactions (Count)
system.comm_monitor.outstandingReadsHist::total            1                       # Outstanding read transactions (Count)
system.comm_monitor.outstandingWritesHist::samples            1                       # Outstanding write transactions (Count)
system.comm_monitor.outstandingWritesHist::mean            2                       # Outstanding write transactions (Count)
system.comm_monitor.outstandingWritesHist::gmean            2                       # Outstanding write transactions (Count)
system.comm_monitor.outstandingWritesHist::stdev          nan                       # Outstanding write transactions (Count)
system.comm_monitor.outstandingWritesHist::0            0      0.00%      0.00% # Outstanding write transactions (Count)
system.comm_monitor.outstandingWritesHist::1            0      0.00%      0.00% # Outstanding write transactions (Count)
system.comm_monitor.outstandingWritesHist::2            1    100.00%    100.00% # Outstanding write transactions (Count)
system.comm_monitor.outstandingWritesHist::3            0      0.00%    100.00% # Outstanding write transactions (Count)
system.comm_monitor.outstandingWritesHist::4            0      0.00%    100.00% # Outstanding write transactions (Count)
system.comm_monitor.outstandingWritesHist::5            0      0.00%    100.00% # Outstanding write transactions (Count)
system.comm_monitor.outstandingWritesHist::6            0      0.00%    100.00% # Outstanding write transactions (Count)
system.comm_monitor.outstandingWritesHist::7            0      0.00%    100.00% # Outstanding write transactions (Count)
system.comm_monitor.outstandingWritesHist::8            0      0.00%    100.00% # Outstanding write transactions (Count)
system.comm_monitor.outstandingWritesHist::9            0      0.00%    100.00% # Outstanding write transactions (Count)
system.comm_monitor.outstandingWritesHist::10            0      0.00%    100.00% # Outstanding write transactions (Count)
system.comm_monitor.outstandingWritesHist::11            0      0.00%    100.00% # Outstanding write transactions (Count)
system.comm_monitor.outstandingWritesHist::12            0      0.00%    100.00% # Outstanding write transactions (Count)
system.comm_monitor.outstandingWritesHist::13            0      0.00%    100.00% # Outstanding write transactions (Count)
system.comm_monitor.outstandingWritesHist::14            0      0.00%    100.00% # Outstanding write transactions (Count)
system.comm_monitor.outstandingWritesHist::15            0      0.00%    100.00% # Outstanding write transactions (Count)
system.comm_monitor.outstandingWritesHist::16            0      0.00%    100.00% # Outstanding write transactions (Count)
system.comm_monitor.outstandingWritesHist::17            0      0.00%    100.00% # Outstanding write transactions (Count)
system.comm_monitor.outstandingWritesHist::18            0      0.00%    100.00% # Outstanding write transactions (Count)
system.comm_monitor.outstandingWritesHist::19            0      0.00%    100.00% # Outstanding write transactions (Count)
system.comm_monitor.outstandingWritesHist::total            1                       # Outstanding write transactions (Count)
system.comm_monitor.readTransHist::samples            1                       # Histogram of read transactions per sample period (Count)
system.comm_monitor.readTransHist::mean         49358                       # Histogram of read transactions per sample period (Count)
system.comm_monitor.readTransHist::gmean 49358.000000                       # Histogram of read transactions per sample period (Count)
system.comm_monitor.readTransHist::stdev          nan                       # Histogram of read transactions per sample period (Count)
system.comm_monitor.readTransHist::0-4095            0      0.00%      0.00% # Histogram of read transactions per sample period (Count)
system.comm_monitor.readTransHist::4096-8191            0      0.00%      0.00% # Histogram of read transactions per sample period (Count)
system.comm_monitor.readTransHist::8192-12287            0      0.00%      0.00% # Histogram of read transactions per sample period (Count)
system.comm_monitor.readTransHist::12288-16383            0      0.00%      0.00% # Histogram of read transactions per sample period (Count)
system.comm_monitor.readTransHist::16384-20479            0      0.00%      0.00% # Histogram of read transactions per sample period (Count)
system.comm_monitor.readTransHist::20480-24575            0      0.00%      0.00% # Histogram of read transactions per sample period (Count)
system.comm_monitor.readTransHist::24576-28671            0      0.00%      0.00% # Histogram of read transactions per sample period (Count)
system.comm_monitor.readTransHist::28672-32767            0      0.00%      0.00% # Histogram of read transactions per sample period (Count)
system.comm_monitor.readTransHist::32768-36863            0      0.00%      0.00% # Histogram of read transactions per sample period (Count)
system.comm_monitor.readTransHist::36864-40959            0      0.00%      0.00% # Histogram of read transactions per sample period (Count)
system.comm_monitor.readTransHist::40960-45055            0      0.00%      0.00% # Histogram of read transactions per sample period (Count)
system.comm_monitor.readTransHist::45056-49151            0      0.00%      0.00% # Histogram of read transactions per sample period (Count)
system.comm_monitor.readTransHist::49152-53247            1    100.00%    100.00% # Histogram of read transactions per sample period (Count)
system.comm_monitor.readTransHist::53248-57343            0      0.00%    100.00% # Histogram of read transactions per sample period (Count)
system.comm_monitor.readTransHist::57344-61439            0      0.00%    100.00% # Histogram of read transactions per sample period (Count)
system.comm_monitor.readTransHist::61440-65535            0      0.00%    100.00% # Histogram of read transactions per sample period (Count)
system.comm_monitor.readTransHist::65536-69631            0      0.00%    100.00% # Histogram of read transactions per sample period (Count)
system.comm_monitor.readTransHist::69632-73727            0      0.00%    100.00% # Histogram of read transactions per sample period (Count)
system.comm_monitor.readTransHist::73728-77823            0      0.00%    100.00% # Histogram of read transactions per sample period (Count)
system.comm_monitor.readTransHist::77824-81919            0      0.00%    100.00% # Histogram of read transactions per sample period (Count)
system.comm_monitor.readTransHist::total            1                       # Histogram of read transactions per sample period (Count)
system.comm_monitor.writeTransHist::samples            1                       # Histogram of write transactions per sample period (Count)
system.comm_monitor.writeTransHist::mean        33970                       # Histogram of write transactions per sample period (Count)
system.comm_monitor.writeTransHist::gmean 33970.000000                       # Histogram of write transactions per sample period (Count)
system.comm_monitor.writeTransHist::stdev          nan                       # Histogram of write transactions per sample period (Count)
system.comm_monitor.writeTransHist::0-2047            0      0.00%      0.00% # Histogram of write transactions per sample period (Count)
system.comm_monitor.writeTransHist::2048-4095            0      0.00%      0.00% # Histogram of write transactions per sample period (Count)
system.comm_monitor.writeTransHist::4096-6143            0      0.00%      0.00% # Histogram of write transactions per sample period (Count)
system.comm_monitor.writeTransHist::6144-8191            0      0.00%      0.00% # Histogram of write transactions per sample period (Count)
system.comm_monitor.writeTransHist::8192-10239            0      0.00%      0.00% # Histogram of write transactions per sample period (Count)
system.comm_monitor.writeTransHist::10240-12287            0      0.00%      0.00% # Histogram of write transactions per sample period (Count)
system.comm_monitor.writeTransHist::12288-14335            0      0.00%      0.00% # Histogram of write transactions per sample period (Count)
system.comm_monitor.writeTransHist::14336-16383            0      0.00%      0.00% # Histogram of write transactions per sample period (Count)
system.comm_monitor.writeTransHist::16384-18431            0      0.00%      0.00% # Histogram of write transactions per sample period (Count)
system.comm_monitor.writeTransHist::18432-20479            0      0.00%      0.00% # Histogram of write transactions per sample period (Count)
system.comm_monitor.writeTransHist::20480-22527            0      0.00%      0.00% # Histogram of write transactions per sample period (Count)
system.comm_monitor.writeTransHist::22528-24575            0      0.00%      0.00% # Histogram of write transactions per sample period (Count)
system.comm_monitor.writeTransHist::24576-26623            0      0.00%      0.00% # Histogram of write transactions per sample period (Count)
system.comm_monitor.writeTransHist::26624-28671            0      0.00%      0.00% # Histogram of write transactions per sample period (Count)
system.comm_monitor.writeTransHist::28672-30719            0      0.00%      0.00% # Histogram of write transactions per sample period (Count)
system.comm_monitor.writeTransHist::30720-32767            0      0.00%      0.00% # Histogram of write transactions per sample period (Count)
system.comm_monitor.writeTransHist::32768-34815            1    100.00%    100.00% # Histogram of write transactions per sample period (Count)
system.comm_monitor.writeTransHist::34816-36863            0      0.00%    100.00% # Histogram of write transactions per sample period (Count)
system.comm_monitor.writeTransHist::36864-38911            0      0.00%    100.00% # Histogram of write transactions per sample period (Count)
system.comm_monitor.writeTransHist::38912-40959            0      0.00%    100.00% # Histogram of write transactions per sample period (Count)
system.comm_monitor.writeTransHist::total            1                       # Histogram of write transactions per sample period (Count)
system.mem_ctrl.avgPriority_tgen::samples     83328.00                       # Average QoS priority value for accepted requests (Count)
system.mem_ctrl.priorityMinLatency       0.000000017492                       # per QoS priority minimum request to response latency (Second)
system.mem_ctrl.priorityMaxLatency       0.000003858110                       # per QoS priority maximum request to response latency (Second)
system.mem_ctrl.numReadWriteTurnArounds          2118                       # Number of turnarounds from READ to WRITE (Count)
system.mem_ctrl.numWriteReadTurnArounds          2119                       # Number of turnarounds from WRITE to READ (Count)
system.mem_ctrl.numStayReadState               101764                       # Number of times bus staying in READ state (Count)
system.mem_ctrl.numStayWriteState               32661                       # Number of times bus staying in WRITE state (Count)
system.mem_ctrl.readReqs                        49358                       # Number of read requests accepted (Count)
system.mem_ctrl.writeReqs                       33970                       # Number of write requests accepted (Count)
system.mem_ctrl.readBursts                      49358                       # Number of controller read bursts, including those serviced by the write queue (Count)
system.mem_ctrl.writeBursts                     33970                       # Number of controller write bursts, including those merged in the write queue (Count)
system.mem_ctrl.servicedByWrQ                       0                       # Number of controller read bursts serviced by the write queue (Count)
system.mem_ctrl.mergedWrBursts                      0                       # Number of controller write bursts merged with an existing one (Count)
system.mem_ctrl.neitherReadNorWriteReqs             0                       # Number of requests that are neither read nor write (Count)
system.mem_ctrl.avgRdQLen                        4.01                       # Average read queue length when enqueuing ((Count/Tick))
system.mem_ctrl.avgWrQLen                       27.42                       # Average write queue length when enqueuing ((Count/Tick))
system.mem_ctrl.numRdRetry                          1                       # Number of times read queue was full causing retry (Count)
system.mem_ctrl.numWrRetry                          0                       # Number of times write queue was full causing retry (Count)
system.mem_ctrl.readPktSize::0                      0                       # Read request sizes (log2) (Count)
system.mem_ctrl.readPktSize::1                      0                       # Read request sizes (log2) (Count)
system.mem_ctrl.readPktSize::2                      0                       # Read request sizes (log2) (Count)
system.mem_ctrl.readPktSize::3                      0                       # Read request sizes (log2) (Count)
system.mem_ctrl.readPktSize::4                      0                       # Read request sizes (log2) (Count)
system.mem_ctrl.readPktSize::5                      0                       # Read request sizes (log2) (Count)
system.mem_ctrl.readPktSize::6                  49358                       # Read request sizes (log2) (Count)
system.mem_ctrl.writePktSize::0                     0                       # Write request sizes (log2) (Count)
system.mem_ctrl.writePktSize::1                     0                       # Write request sizes (log2) (Count)
system.mem_ctrl.writePktSize::2                     0                       # Write request sizes (log2) (Count)
system.mem_ctrl.writePktSize::3                     0                       # Write request sizes (log2) (Count)
system.mem_ctrl.writePktSize::4                     0                       # Write request sizes (log2) (Count)
system.mem_ctrl.writePktSize::5                     0                       # Write request sizes (log2) (Count)
system.mem_ctrl.writePktSize::6                 33970                       # Write request sizes (log2) (Count)
system.mem_ctrl.rdQLenPdf::0                    10083                       # What read queue length does an incoming req see (Count)
system.mem_ctrl.rdQLenPdf::1                    16544                       # What read queue length does an incoming req see (Count)
system.mem_ctrl.rdQLenPdf::2                     4227                       # What read queue length does an incoming req see (Count)
system.mem_ctrl.rdQLenPdf::3                     3349                       # What read queue length does an incoming req see (Count)
system.mem_ctrl.rdQLenPdf::4                     3088                       # What read queue length does an incoming req see (Count)
system.mem_ctrl.rdQLenPdf::5                     2788                       # What read queue length does an incoming req see (Count)
system.mem_ctrl.rdQLenPdf::6                     2497                       # What read queue length does an incoming req see (Count)
system.mem_ctrl.rdQLenPdf::7                     1974                       # What read queue length does an incoming req see (Count)
system.mem_ctrl.rdQLenPdf::8                     1333                       # What read queue length does an incoming req see (Count)
system.mem_ctrl.rdQLenPdf::9                      875                       # What read queue length does an incoming req see (Count)
system.mem_ctrl.rdQLenPdf::10                     511                       # What read queue length does an incoming req see (Count)
system.mem_ctrl.rdQLenPdf::11                     322                       # What read queue length does an incoming req see (Count)
system.mem_ctrl.rdQLenPdf::12                     210                       # What read queue length does an incoming req see (Count)
system.mem_ctrl.rdQLenPdf::13                     197                       # What read queue length does an incoming req see (Count)
system.mem_ctrl.rdQLenPdf::14                     182                       # What read queue length does an incoming req see (Count)
system.mem_ctrl.rdQLenPdf::15                     168                       # What read queue length does an incoming req see (Count)
system.mem_ctrl.rdQLenPdf::16                     151                       # What read queue length does an incoming req see (Count)
system.mem_ctrl.rdQLenPdf::17                     142                       # What read queue length does an incoming req see (Count)
system.mem_ctrl.rdQLenPdf::18                     142                       # What read queue length does an incoming req see (Count)
system.mem_ctrl.rdQLenPdf::19                     129                       # What read queue length does an incoming req see (Count)
system.mem_ctrl.rdQLenPdf::20                      95                       # What read queue length does an incoming req see (Count)
system.mem_ctrl.rdQLenPdf::21                      79                       # What read queue length does an incoming req see (Count)
system.mem_ctrl.rdQLenPdf::22                      62                       # What read queue length does an incoming req see (Count)
system.mem_ctrl.rdQLenPdf::23                      59                       # What read queue length does an incoming req see (Count)
system.mem_ctrl.rdQLenPdf::24                      42                       # What read queue length does an incoming req see (Count)
system.mem_ctrl.rdQLenPdf::25                      36                       # What read queue length does an incoming req see (Count)
system.mem_ctrl.rdQLenPdf::26                      25                       # What read queue length does an incoming req see (Count)
system.mem_ctrl.rdQLenPdf::27                      18                       # What read queue length does an incoming req see (Count)
system.mem_ctrl.rdQLenPdf::28                      11                       # What read queue length does an incoming req see (Count)
system.mem_ctrl.rdQLenPdf::29                       9                       # What read queue length does an incoming req see (Count)
system.mem_ctrl.rdQLenPdf::30                       5                       # What read queue length does an incoming req see (Count)
system.mem_ctrl.rdQLenPdf::31                       5                       # What read queue length does an incoming req see (Count)
system.mem_ctrl.wrQLenPdf::0                        1                       # What write queue length does an incoming req see (Count)
system.mem_ctrl.wrQLenPdf::1                        1                       # What write queue length does an incoming req see (Count)
system.mem_ctrl.wrQLenPdf::2                        1                       # What write queue length does an incoming req see (Count)
system.mem_ctrl.wrQLenPdf::3                        1                       # What write queue length does an incoming req see (Count)
system.mem_ctrl.wrQLenPdf::4                        1                       # What write queue length does an incoming req see (Count)
system.mem_ctrl.wrQLenPdf::5                        1                       # What write queue length does an incoming req see (Count)
system.mem_ctrl.wrQLenPdf::6                        1                       # What write queue length does an incoming req see (Count)
system.mem_ctrl.wrQLenPdf::7                        1                       # What write queue length does an incoming req see (Count)
system.mem_ctrl.wrQLenPdf::8                        1                       # What write queue length does an incoming req see (Count)
system.mem_ctrl.wrQLenPdf::9                        1                       # What write queue length does an incoming req see (Count)
system.mem_ctrl.wrQLenPdf::10                       1                       # What write queue length does an incoming req see (Count)
system.mem_ctrl.wrQLenPdf::11                       1                       # What write queue length does an incoming req see (Count)
system.mem_ctrl.wrQLenPdf::12                       1                       # What write queue length does an incoming req see (Count)
system.mem_ctrl.wrQLenPdf::13                       1                       # What write queue length does an incoming req see (Count)
system.mem_ctrl.wrQLenPdf::14                       1                       # What write queue length does an incoming req see (Count)
system.mem_ctrl.wrQLenPdf::15                       2                       # What write queue length does an incoming req see (Count)
system.mem_ctrl.wrQLenPdf::16                       2                       # What write queue length does an incoming req see (Count)
system.mem_ctrl.wrQLenPdf::17                     115                       # What write queue length does an incoming req see (Count)
system.mem_ctrl.wrQLenPdf::18                     428                       # What write queue length does an incoming req see (Count)
system.mem_ctrl.wrQLenPdf::19                    1034                       # What write queue length does an incoming req see (Count)
system.mem_ctrl.wrQLenPdf::20                    1805                       # What write queue length does an incoming req see (Count)
system.mem_ctrl.wrQLenPdf::21                    2146                       # What write queue length does an incoming req see (Count)
system.mem_ctrl.wrQLenPdf::22                    2430                       # What write queue length does an incoming req see (Count)
system.mem_ctrl.wrQLenPdf::23                    2466                       # What write queue length does an incoming req see (Count)
system.mem_ctrl.wrQLenPdf::24                    2850                       # What write queue length does an incoming req see (Count)
system.mem_ctrl.wrQLenPdf::25                    2448                       # What write queue length does an incoming req see (Count)
system.mem_ctrl.wrQLenPdf::26                    2414                       # What write queue length does an incoming req see (Count)
system.mem_ctrl.wrQLenPdf::27                    2372                       # What write queue length does an incoming req see (Count)
system.mem_ctrl.wrQLenPdf::28                    2313                       # What write queue length does an incoming req see (Count)
system.mem_ctrl.wrQLenPdf::29                    2315                       # What write queue length does an incoming req see (Count)
system.mem_ctrl.wrQLenPdf::30                    2276                       # What write queue length does an incoming req see (Count)
system.mem_ctrl.wrQLenPdf::31                    2268                       # What write queue length does an incoming req see (Count)
system.mem_ctrl.wrQLenPdf::32                    2157                       # What write queue length does an incoming req see (Count)
system.mem_ctrl.wrQLenPdf::33                     234                       # What write queue length does an incoming req see (Count)
system.mem_ctrl.wrQLenPdf::34                     228                       # What write queue length does an incoming req see (Count)
system.mem_ctrl.wrQLenPdf::35                     228                       # What write queue length does an incoming req see (Count)
system.mem_ctrl.wrQLenPdf::36                     201                       # What write queue length does an incoming req see (Count)
system.mem_ctrl.wrQLenPdf::37                     192                       # What write queue length does an incoming req see (Count)
system.mem_ctrl.wrQLenPdf::38                     185                       # What write queue length does an incoming req see (Count)
system.mem_ctrl.wrQLenPdf::39                     164                       # What write queue length does an incoming req see (Count)
system.mem_ctrl.wrQLenPdf::40                     142                       # What write queue length does an incoming req see (Count)
system.mem_ctrl.wrQLenPdf::41                     116                       # What write queue length does an incoming req see (Count)
system.mem_ctrl.wrQLenPdf::42                     102                       # What write queue length does an incoming req see (Count)
system.mem_ctrl.wrQLenPdf::43                      77                       # What write queue length does an incoming req see (Count)
system.mem_ctrl.wrQLenPdf::44                      72                       # What write queue length does an incoming req see (Count)
system.mem_ctrl.wrQLenPdf::45                      51                       # What write queue length does an incoming req see (Count)
system.mem_ctrl.wrQLenPdf::46                      41                       # What write queue length does an incoming req see (Count)
system.mem_ctrl.wrQLenPdf::47                      30                       # What write queue length does an incoming req see (Count)
system.mem_ctrl.wrQLenPdf::48                      22                       # What write queue length does an incoming req see (Count)
system.mem_ctrl.wrQLenPdf::49                      14                       # What write queue length does an incoming req see (Count)
system.mem_ctrl.wrQLenPdf::50                       6                       # What write queue length does an incoming req see (Count)
system.mem_ctrl.wrQLenPdf::51                       2                       # What write queue length does an incoming req see (Count)
system.mem_ctrl.wrQLenPdf::52                       1                       # What write queue length does an incoming req see (Count)
system.mem_ctrl.wrQLenPdf::53                       3                       # What write queue length does an incoming req see (Count)
system.mem_ctrl.wrQLenPdf::54                       2                       # What write queue length does an incoming req see (Count)
system.mem_ctrl.wrQLenPdf::55                       1                       # What write queue length does an incoming req see (Count)
system.mem_ctrl.wrQLenPdf::56                       0                       # What write queue length does an incoming req see (Count)
system.mem_ctrl.wrQLenPdf::57                       0                       # What write queue length does an incoming req see (Count)
system.mem_ctrl.wrQLenPdf::58                       0                       # What write queue length does an incoming req see (Count)
system.mem_ctrl.wrQLenPdf::59                       0                       # What write queue length does an incoming req see (Count)
system.mem_ctrl.wrQLenPdf::60                       0                       # What write queue length does an incoming req see (Count)
system.mem_ctrl.wrQLenPdf::61                       0                       # What write queue length does an incoming req see (Count)
system.mem_ctrl.wrQLenPdf::62                       0                       # What write queue length does an incoming req see (Count)
system.mem_ctrl.wrQLenPdf::63                       0                       # What write queue length does an incoming req see (Count)
system.mem_ctrl.rdPerTurnAround::samples         2119                       # Reads before turning the bus around for writes (Count)
system.mem_ctrl.rdPerTurnAround::mean       23.292119                       # Reads before turning the bus around for writes (Count)
system.mem_ctrl.rdPerTurnAround::gmean      21.501434                       # Reads before turning the bus around for writes (Count)
system.mem_ctrl.rdPerTurnAround::stdev       8.871344                       # Reads before turning the bus around for writes (Count)
system.mem_ctrl.rdPerTurnAround::0-3                2      0.09%      0.09% # Reads before turning the bus around for writes (Count)
system.mem_ctrl.rdPerTurnAround::4-7               46      2.17%      2.27% # Reads before turning the bus around for writes (Count)
system.mem_ctrl.rdPerTurnAround::8-11             102      4.81%      7.08% # Reads before turning the bus around for writes (Count)
system.mem_ctrl.rdPerTurnAround::12-15            234     11.04%     18.12% # Reads before turning the bus around for writes (Count)
system.mem_ctrl.rdPerTurnAround::16-19            377     17.79%     35.91% # Reads before turning the bus around for writes (Count)
system.mem_ctrl.rdPerTurnAround::20-23            402     18.97%     54.88% # Reads before turning the bus around for writes (Count)
system.mem_ctrl.rdPerTurnAround::24-27            357     16.85%     71.73% # Reads before turning the bus around for writes (Count)
system.mem_ctrl.rdPerTurnAround::28-31            265     12.51%     84.24% # Reads before turning the bus around for writes (Count)
system.mem_ctrl.rdPerTurnAround::32-35            145      6.84%     91.08% # Reads before turning the bus around for writes (Count)
system.mem_ctrl.rdPerTurnAround::36-39             89      4.20%     95.28% # Reads before turning the bus around for writes (Count)
system.mem_ctrl.rdPerTurnAround::40-43             43      2.03%     97.31% # Reads before turning the bus around for writes (Count)
system.mem_ctrl.rdPerTurnAround::44-47             32      1.51%     98.82% # Reads before turning the bus around for writes (Count)
system.mem_ctrl.rdPerTurnAround::48-51             17      0.80%     99.62% # Reads before turning the bus around for writes (Count)
system.mem_ctrl.rdPerTurnAround::52-55              3      0.14%     99.76% # Reads before turning the bus around for writes (Count)
system.mem_ctrl.rdPerTurnAround::56-59              3      0.14%     99.91% # Reads before turning the bus around for writes (Count)
system.mem_ctrl.rdPerTurnAround::60-63              1      0.05%     99.95% # Reads before turning the bus around for writes (Count)
system.mem_ctrl.rdPerTurnAround::64-67              1      0.05%    100.00% # Reads before turning the bus around for writes (Count)
system.mem_ctrl.rdPerTurnAround::total           2119                       # Reads before turning the bus around for writes (Count)
system.mem_ctrl.wrPerTurnAround::samples         2118                       # Writes before turning the bus around for reads (Count)
system.mem_ctrl.wrPerTurnAround::mean       16.022191                       # Writes before turning the bus around for reads (Count)
system.mem_ctrl.wrPerTurnAround::gmean      16.019944                       # Writes before turning the bus around for reads (Count)
system.mem_ctrl.wrPerTurnAround::stdev       0.297967                       # Writes before turning the bus around for reads (Count)
system.mem_ctrl.wrPerTurnAround::16              2094     98.87%     98.87% # Writes before turning the bus around for reads (Count)
system.mem_ctrl.wrPerTurnAround::17                19      0.90%     99.76% # Writes before turning the bus around for reads (Count)
system.mem_ctrl.wrPerTurnAround::20                 2      0.09%     99.86% # Writes before turning the bus around for reads (Count)
system.mem_ctrl.wrPerTurnAround::21                 1      0.05%     99.91% # Writes before turning the bus around for reads (Count)
system.mem_ctrl.wrPerTurnAround::23                 1      0.05%     99.95% # Writes before turning the bus around for reads (Count)
system.mem_ctrl.wrPerTurnAround::24                 1      0.05%    100.00% # Writes before turning the bus around for reads (Count)
system.mem_ctrl.wrPerTurnAround::total           2118                       # Writes before turning the bus around for reads (Count)
system.mem_ctrl.bytesReadWrQ                        0                       # Total number of bytes read from write queue (Byte)
system.mem_ctrl.bytesReadSys                  3158912                       # Total read bytes from the system interface side (Byte)
system.mem_ctrl.bytesWrittenSys               2174080                       # Total written bytes from the system interface side (Byte)
system.mem_ctrl.avgRdBWSys               3158912000.00000000                       # Average system read bandwidth in Byte/s ((Byte/Second))
system.mem_ctrl.avgWrBWSys               2174080000.00000000                       # Average system write bandwidth in Byte/s ((Byte/Second))
system.mem_ctrl.totGap                      999984608                       # Total gap between requests (Tick)
system.mem_ctrl.avgGap                       12000.58                       # Average gap between requests ((Tick/Count))
system.mem_ctrl.requestorReadBytes::tgen      3158784                       # Per-requestor bytes read from memory (Byte)
system.mem_ctrl.requestorWriteBytes::tgen      2172224                       # Per-requestor bytes write to memory (Byte)
system.mem_ctrl.requestorReadRate::tgen  3158784000.000000000000                       # Per-requestor bytes read from memory rate ((Byte/Second))
system.mem_ctrl.requestorWriteRate::tgen 2172224000.000000000000                       # Per-requestor bytes write to memory rate ((Byte/Second))
system.mem_ctrl.requestorReadAccesses::tgen        49358                       # Per-requestor read serviced memory accesses (Count)
system.mem_ctrl.requestorWriteAccesses::tgen        33970                       # Per-requestor write serviced memory accesses (Count)
system.mem_ctrl.requestorReadTotalLat::tgen   3293114716                       # Per-requestor read total memory access latency (Tick)
system.mem_ctrl.requestorWriteTotalLat::tgen  28088651550                       # Per-requestor write total memory access latency (Tick)
system.mem_ctrl.requestorReadAvgLat::tgen     66718.97                       # Per-requestor read average memory access latency ((Tick/Count))
system.mem_ctrl.requestorWriteAvgLat::tgen    826866.40                       # Per-requestor write average memory access latency ((Tick/Count))
system.mem_ctrl.dram.bytesRead::tgen          3158784                       # Number of bytes read from this memory (Byte)
system.mem_ctrl.dram.bytesRead::total         3158784                       # Number of bytes read from this memory (Byte)
system.mem_ctrl.dram.bytesWritten::tgen       2174080                       # Number of bytes written to this memory (Byte)
system.mem_ctrl.dram.bytesWritten::total      2174080                       # Number of bytes written to this memory (Byte)
system.mem_ctrl.dram.numReads::tgen             49356                       # Number of read requests responded to by this memory (Count)
system.mem_ctrl.dram.numReads::total            49356                       # Number of read requests responded to by this memory (Count)
system.mem_ctrl.dram.numWrites::tgen            33970                       # Number of write requests responded to by this memory (Count)
system.mem_ctrl.dram.numWrites::total           33970                       # Number of write requests responded to by this memory (Count)
system.mem_ctrl.dram.bwRead::tgen          3158784000                       # Total read bandwidth from this memory ((Byte/Second))
system.mem_ctrl.dram.bwRead::total         3158784000                       # Total read bandwidth from this memory ((Byte/Second))
system.mem_ctrl.dram.bwWrite::tgen         2174080000                       # Write bandwidth from this memory ((Byte/Second))
system.mem_ctrl.dram.bwWrite::total        2174080000                       # Write bandwidth from this memory ((Byte/Second))
system.mem_ctrl.dram.bwTotal::tgen         5332864000                       # Total bandwidth to/from this memory ((Byte/Second))
system.mem_ctrl.dram.bwTotal::total        5332864000                       # Total bandwidth to/from this memory ((Byte/Second))
system.mem_ctrl.dram.readBursts                 49356                       # Number of DRAM read bursts (Count)
system.mem_ctrl.dram.writeBursts                33941                       # Number of DRAM write bursts (Count)
system.mem_ctrl.dram.perBankRdBursts::0          1598                       # Per bank write bursts (Count)
system.mem_ctrl.dram.perBankRdBursts::1          1600                       # Per bank write bursts (Count)
system.mem_ctrl.dram.perBankRdBursts::2          1604                       # Per bank write bursts (Count)
system.mem_ctrl.dram.perBankRdBursts::3          1601                       # Per bank write bursts (Count)
system.mem_ctrl.dram.perBankRdBursts::4          1579                       # Per bank write bursts (Count)
system.mem_ctrl.dram.perBankRdBursts::5          1600                       # Per bank write bursts (Count)
system.mem_ctrl.dram.perBankRdBursts::6          1572                       # Per bank write bursts (Count)
system.mem_ctrl.dram.perBankRdBursts::7          1626                       # Per bank write bursts (Count)
system.mem_ctrl.dram.perBankRdBursts::8          1619                       # Per bank write bursts (Count)
system.mem_ctrl.dram.perBankRdBursts::9          1571                       # Per bank write bursts (Count)
system.mem_ctrl.dram.perBankRdBursts::10         1580                       # Per bank write bursts (Count)
system.mem_ctrl.dram.perBankRdBursts::11         1526                       # Per bank write bursts (Count)
system.mem_ctrl.dram.perBankRdBursts::12         1534                       # Per bank write bursts (Count)
system.mem_ctrl.dram.perBankRdBursts::13         1488                       # Per bank write bursts (Count)
system.mem_ctrl.dram.perBankRdBursts::14         1503                       # Per bank write bursts (Count)
system.mem_ctrl.dram.perBankRdBursts::15         1529                       # Per bank write bursts (Count)
system.mem_ctrl.dram.perBankRdBursts::16         1517                       # Per bank write bursts (Count)
system.mem_ctrl.dram.perBankRdBursts::17         1527                       # Per bank write bursts (Count)
system.mem_ctrl.dram.perBankRdBursts::18         1514                       # Per bank write bursts (Count)
system.mem_ctrl.dram.perBankRdBursts::19         1553                       # Per bank write bursts (Count)
system.mem_ctrl.dram.perBankRdBursts::20         1514                       # Per bank write bursts (Count)
system.mem_ctrl.dram.perBankRdBursts::21         1527                       # Per bank write bursts (Count)
system.mem_ctrl.dram.perBankRdBursts::22         1518                       # Per bank write bursts (Count)
system.mem_ctrl.dram.perBankRdBursts::23         1492                       # Per bank write bursts (Count)
system.mem_ctrl.dram.perBankRdBursts::24         1499                       # Per bank write bursts (Count)
system.mem_ctrl.dram.perBankRdBursts::25         1474                       # Per bank write bursts (Count)
system.mem_ctrl.dram.perBankRdBursts::26         1533                       # Per bank write bursts (Count)
system.mem_ctrl.dram.perBankRdBursts::27         1462                       # Per bank write bursts (Count)
system.mem_ctrl.dram.perBankRdBursts::28         1489                       # Per bank write bursts (Count)
system.mem_ctrl.dram.perBankRdBursts::29         1538                       # Per bank write bursts (Count)
system.mem_ctrl.dram.perBankRdBursts::30         1547                       # Per bank write bursts (Count)
system.mem_ctrl.dram.perBankRdBursts::31         1522                       # Per bank write bursts (Count)
system.mem_ctrl.dram.perBankWrBursts::0          1090                       # Per bank write bursts (Count)
system.mem_ctrl.dram.perBankWrBursts::1          1088                       # Per bank write bursts (Count)
system.mem_ctrl.dram.perBankWrBursts::2          1084                       # Per bank write bursts (Count)
system.mem_ctrl.dram.perBankWrBursts::3          1087                       # Per bank write bursts (Count)
system.mem_ctrl.dram.perBankWrBursts::4          1109                       # Per bank write bursts (Count)
system.mem_ctrl.dram.perBankWrBursts::5          1088                       # Per bank write bursts (Count)
system.mem_ctrl.dram.perBankWrBursts::6          1116                       # Per bank write bursts (Count)
system.mem_ctrl.dram.perBankWrBursts::7          1062                       # Per bank write bursts (Count)
system.mem_ctrl.dram.perBankWrBursts::8          1069                       # Per bank write bursts (Count)
system.mem_ctrl.dram.perBankWrBursts::9          1117                       # Per bank write bursts (Count)
system.mem_ctrl.dram.perBankWrBursts::10         1077                       # Per bank write bursts (Count)
system.mem_ctrl.dram.perBankWrBursts::11         1034                       # Per bank write bursts (Count)
system.mem_ctrl.dram.perBankWrBursts::12         1026                       # Per bank write bursts (Count)
system.mem_ctrl.dram.perBankWrBursts::13         1072                       # Per bank write bursts (Count)
system.mem_ctrl.dram.perBankWrBursts::14         1057                       # Per bank write bursts (Count)
system.mem_ctrl.dram.perBankWrBursts::15         1031                       # Per bank write bursts (Count)
system.mem_ctrl.dram.perBankWrBursts::16         1043                       # Per bank write bursts (Count)
system.mem_ctrl.dram.perBankWrBursts::17         1033                       # Per bank write bursts (Count)
system.mem_ctrl.dram.perBankWrBursts::18         1046                       # Per bank write bursts (Count)
system.mem_ctrl.dram.perBankWrBursts::19         1007                       # Per bank write bursts (Count)
system.mem_ctrl.dram.perBankWrBursts::20         1046                       # Per bank write bursts (Count)
system.mem_ctrl.dram.perBankWrBursts::21         1033                       # Per bank write bursts (Count)
system.mem_ctrl.dram.perBankWrBursts::22         1042                       # Per bank write bursts (Count)
system.mem_ctrl.dram.perBankWrBursts::23         1068                       # Per bank write bursts (Count)
system.mem_ctrl.dram.perBankWrBursts::24         1061                       # Per bank write bursts (Count)
system.mem_ctrl.dram.perBankWrBursts::25         1086                       # Per bank write bursts (Count)
system.mem_ctrl.dram.perBankWrBursts::26         1027                       # Per bank write bursts (Count)
system.mem_ctrl.dram.perBankWrBursts::27         1098                       # Per bank write bursts (Count)
system.mem_ctrl.dram.perBankWrBursts::28         1071                       # Per bank write bursts (Count)
system.mem_ctrl.dram.perBankWrBursts::29         1022                       # Per bank write bursts (Count)
system.mem_ctrl.dram.perBankWrBursts::30         1013                       # Per bank write bursts (Count)
system.mem_ctrl.dram.perBankWrBursts::31         1038                       # Per bank write bursts (Count)
system.mem_ctrl.dram.totQLat               2429779564                       # Total ticks spent queuing (Tick)
system.mem_ctrl.dram.totBusLat              164454192                       # Total ticks spent in databus transfers (Tick)
system.mem_ctrl.dram.totMemAccLat          3293114716                       # Total ticks spent from burst creation until serviced by the DRAM (Tick)
system.mem_ctrl.dram.avgQLat                 49229.67                       # Average queueing delay per DRAM burst ((Tick/Count))
system.mem_ctrl.dram.avgBusLat                3332.00                       # Average bus latency per DRAM burst ((Tick/Count))
system.mem_ctrl.dram.avgMemAccLat            66721.67                       # Average memory access latency per DRAM burst ((Tick/Count))
system.mem_ctrl.dram.readRowHits                45915                       # Number of row buffer hits during reads (Count)
system.mem_ctrl.dram.writeRowHits               31999                       # Number of row buffer hits during writes (Count)
system.mem_ctrl.dram.readRowHitRate             93.03                       # Row buffer hit rate for reads (Ratio)
system.mem_ctrl.dram.writeRowHitRate            94.28                       # Row buffer hit rate for writes (Ratio)
system.mem_ctrl.dram.bytesPerActivate::samples         5381                       # Bytes accessed per row activation (Byte)
system.mem_ctrl.dram.bytesPerActivate::mean   990.554915                       # Bytes accessed per row activation (Byte)
system.mem_ctrl.dram.bytesPerActivate::gmean   962.409731                       # Bytes accessed per row activation (Byte)
system.mem_ctrl.dram.bytesPerActivate::stdev   146.765693                       # Bytes accessed per row activation (Byte)
system.mem_ctrl.dram.bytesPerActivate::0-127           36      0.67%      0.67% # Bytes accessed per row activation (Byte)
system.mem_ctrl.dram.bytesPerActivate::128-255           43      0.80%      1.47% # Bytes accessed per row activation (Byte)
system.mem_ctrl.dram.bytesPerActivate::256-383           36      0.67%      2.14% # Bytes accessed per row activation (Byte)
system.mem_ctrl.dram.bytesPerActivate::384-511           55      1.02%      3.16% # Bytes accessed per row activation (Byte)
system.mem_ctrl.dram.bytesPerActivate::512-639           40      0.74%      3.90% # Bytes accessed per row activation (Byte)
system.mem_ctrl.dram.bytesPerActivate::640-767           51      0.95%      4.85% # Bytes accessed per row activation (Byte)
system.mem_ctrl.dram.bytesPerActivate::768-895           32      0.59%      5.45% # Bytes accessed per row activation (Byte)
system.mem_ctrl.dram.bytesPerActivate::896-1023           58      1.08%      6.52% # Bytes accessed per row activation (Byte)
system.mem_ctrl.dram.bytesPerActivate::1024-1151         5030     93.48%    100.00% # Bytes accessed per row activation (Byte)
system.mem_ctrl.dram.bytesPerActivate::total         5381                       # Bytes accessed per row activation (Byte)
system.mem_ctrl.dram.dramBytesRead            3158784                       # Total bytes read (Byte)
system.mem_ctrl.dram.dramBytesWritten         2172224                       # Total bytes written (Byte)
system.mem_ctrl.dram.avgRdBW              3158.784000                       # Average DRAM read bandwidth in MiBytes/s ((Byte/Second))
system.mem_ctrl.dram.avgWrBW              2172.224000                       # Average DRAM write bandwidth in MiBytes/s ((Byte/Second))
system.mem_ctrl.dram.peakBW                  19207.00                       # Theoretical peak bandwidth in MiByte/s ((Byte/Second))
system.mem_ctrl.dram.busUtil                    27.76                       # Data bus utilization in percentage (Ratio)
system.mem_ctrl.dram.busUtilRead                16.45                       # Data bus utilization in percentage for reads (Ratio)
system.mem_ctrl.dram.busUtilWrite               11.31                       # Data bus utilization in percentage for writes (Ratio)
system.mem_ctrl.dram.pageHitRate                93.54                       # Row buffer hit rate, read and write combined (Ratio)
system.mem_ctrl.dram.power_state.pwrStateResidencyTicks::UNDEFINED   1000000000                       # Cumulative time (in ticks) in various power states (Tick)
system.mem_ctrl.dram.rank0.actEnergy     8536024.224000                       # Energy for activate commands per rank (pJ) (Joule)
system.mem_ctrl.dram.rank0.preEnergy     11340242.088000                       # Energy for precharge commands per rank (pJ) (Joule)
system.mem_ctrl.dram.rank0.readEnergy    105704741.184000                       # Energy for read commands per rank (pJ) (Joule)
system.mem_ctrl.dram.rank0.writeEnergy   64668682.176000                       # Energy for write commands per rank (pJ) (Joule)
system.mem_ctrl.dram.rank0.refreshEnergy 177328336.281601                       # Energy for refresh commands per rank (pJ) (Joule)
system.mem_ctrl.dram.rank0.actBackEnergy 517365750.888000                       # Energy for active background per rank (pJ) (Joule)
system.mem_ctrl.dram.rank0.preBackEnergy 255276472.550400                       # Energy for precharge background per rank (pJ) (Joule)
system.mem_ctrl.dram.rank0.actPowerDownEnergy            0                       # Energy for active power-down per rank (pJ) (Joule)
system.mem_ctrl.dram.rank0.prePowerDownEnergy            0                       # Energy for precharge power-down per rank (pJ) (Joule)
system.mem_ctrl.dram.rank0.selfRefreshEnergy            0                       # Energy for self refresh per rank (pJ) (Joule)
system.mem_ctrl.dram.rank0.totalEnergy   1140220249.392000                       # Total energy per rank (pJ) (Joule)
system.mem_ctrl.dram.rank0.averagePower   1140.220249                       # Core power per rank (mW) (Watt)
system.mem_ctrl.dram.rank0.totalIdleTime            0                       # Total Idle time Per DRAM Rank (Tick)
system.mem_ctrl.dram.rank0.pwrStateTime::IDLE    382944752                       # Time in different power states (Tick)
system.mem_ctrl.dram.rank0.pwrStateTime::REF     44800000                       # Time in different power states (Tick)
system.mem_ctrl.dram.rank0.pwrStateTime::SREF            0                       # Time in different power states (Tick)
system.mem_ctrl.dram.rank0.pwrStateTime::PRE_PDN            0                       # Time in different power states (Tick)
system.mem_ctrl.dram.rank0.pwrStateTime::ACT    572255248                       # Time in different power states (Tick)
system.mem_ctrl.dram.rank0.pwrStateTime::ACT_PDN            0                       # Time in different power states (Tick)
system.mem_ctrl.dram.rank1.actEnergy     8249099.040000                       # Energy for activate commands per rank (pJ) (Joule)
system.mem_ctrl.dram.rank1.preEnergy     10967071.416000                       # Energy for precharge commands per rank (pJ) (Joule)
system.mem_ctrl.dram.rank1.readEnergy    101902230.796800                       # Energy for read commands per rank (pJ) (Joule)
system.mem_ctrl.dram.rank1.writeEnergy   62894672.064000                       # Energy for write commands per rank (pJ) (Joule)
system.mem_ctrl.dram.rank1.refreshEnergy 177328336.281601                       # Energy for refresh commands per rank (pJ) (Joule)
system.mem_ctrl.dram.rank1.actBackEnergy 507294940.824000                       # Energy for active background per rank (pJ) (Joule)
system.mem_ctrl.dram.rank1.preBackEnergy 263014496.102400                       # Energy for precharge background per rank (pJ) (Joule)
system.mem_ctrl.dram.rank1.actPowerDownEnergy            0                       # Energy for active power-down per rank (pJ) (Joule)
system.mem_ctrl.dram.rank1.prePowerDownEnergy            0                       # Energy for precharge power-down per rank (pJ) (Joule)
system.mem_ctrl.dram.rank1.selfRefreshEnergy            0                       # Energy for self refresh per rank (pJ) (Joule)
system.mem_ctrl.dram.rank1.totalEnergy   1131650846.524800                       # Total energy per rank (pJ) (Joule)
system.mem_ctrl.dram.rank1.averagePower   1131.650847                       # Core power per rank (mW) (Watt)
system.mem_ctrl.dram.rank1.totalIdleTime            0                       # Total Idle time Per DRAM Rank (Tick)
system.mem_ctrl.dram.rank1.pwrStateTime::IDLE    394358472                       # Time in different power states (Tick)
system.mem_ctrl.dram.rank1.pwrStateTime::REF     44800000                       # Time in different power states (Tick)
system.mem_ctrl.dram.rank1.pwrStateTime::SREF            0                       # Time in different power states (Tick)
system.mem_ctrl.dram.rank1.pwrStateTime::PRE_PDN            0                       # Time in different power states (Tick)
system.mem_ctrl.dram.rank1.pwrStateTime::ACT    560841528                       # Time in different power states (Tick)
system.mem_ctrl.dram.rank1.pwrStateTime::ACT_PDN            0                       # Time in different power states (Tick)
system.mem_ctrl.power_state.pwrStateResidencyTicks::UNDEFINED   1000000000                       # Cumulative time (in ticks) in various power states (Tick)
system.membus.transDist::ReadReq                49358                       # Transaction distribution (Count)
system.membus.transDist::ReadResp               49356                       # Transaction distribution (Count)
system.membus.transDist::WriteReq               33970                       # Transaction distribution (Count)
system.membus.transDist::WriteResp              33968                       # Transaction distribution (Count)
system.membus.pktCount_system.tgen.port::system.comm_monitor-cpu_side_port       166652                       # Packet count per connected requestor and responder (Count)
system.membus.pktSize_system.tgen.port::system.comm_monitor-cpu_side_port      5332864                       # Cumulative packet size per connected requestor and responder (Byte)
system.membus.snoops                                0                       # Total snoops (Count)
system.membus.snoopTraffic                          0                       # Total snoop traffic (Byte)
system.membus.snoopFanout::samples              83329                       # Request fanout histogram (Count)
system.membus.snoopFanout::mean                     0                       # Request fanout histogram (Count)
system.membus.snoopFanout::stdev                    0                       # Request fanout histogram (Count)
system.membus.snoopFanout::underflows               0      0.00%      0.00% # Request fanout histogram (Count)
system.membus.snoopFanout::0                    83329    100.00%    100.00% # Request fanout histogram (Count)
system.membus.snoopFanout::overflows                0      0.00%    100.00% # Request fanout histogram (Count)
system.membus.snoopFanout::min_value                0                       # Request fanout histogram (Count)
system.membus.snoopFanout::max_value                0                       # Request fanout histogram (Count)
system.membus.snoopFanout::total                83329                       # Request fanout histogram (Count)
system.membus.power_state.pwrStateResidencyTicks::UNDEFINED   1000000000                       # Cumulative time (in ticks) in various power states (Tick)
system.membus.reqLayer0.occupancy           135196152                       # Layer occupancy (ticks) (Tick)
system.membus.reqLayer0.utilization               0.1                       # Layer utilization (Ratio)
system.membus.respLayer0.occupancy          155520502                       # Layer occupancy (ticks) (Tick)
system.membus.respLayer0.utilization              0.2                       # Layer utilization (Ratio)
system.membus.snoop_filter.totRequests              0                       # Total number of requests made to the snoop filter. (Count)
system.membus.snoop_filter.hitSingleRequests            0                       # Number of requests hitting in the snoop filter with a single holder of the requested data. (Count)
system.membus.snoop_filter.hitMultiRequests            0                       # Number of requests hitting in the snoop filter with multiple (>1) holders of the requested data. (Count)
system.membus.snoop_filter.totSnoops                0                       # Total number of snoops made to the snoop filter. (Count)
system.membus.snoop_filter.hitSingleSnoops            0                       # Number of snoops hitting in the snoop filter with a single holder of the requested data. (Count)
system.membus.snoop_filter.hitMultiSnoops            0                       # Number of snoops hitting in the snoop filter with multiple (>1) holders of the requested data. (Count)
system.tgen.numSuppressed                           0                       # Number of suppressed packets to non-memory space (Count)
system.tgen.numPackets                          83328                       # Number of packets generated (Count)
system.tgen.numRetries                              2                       # Number of retries (Count)
system.tgen.retryTicks                          74000                       # Time spent waiting due to back-pressure (Tick)
system.tgen.bytesRead                         3158784                       # Number of bytes read (Byte)
system.tgen.bytesWritten                      2173952                       # Number of bytes written (Byte)
system.tgen.totalReadLatency               4807734352                       # Total latency of read requests (Tick)
system.tgen.totalWriteLatency               723356232                       # Total latency of write requests (Tick)
system.tgen.totalReads                          49356                       # Total num of reads (Count)
system.tgen.totalWrites                         33968                       # Total num of writes (Count)
system.tgen.avgReadLatency               97409.319070                       # Avg latency of read requests ((Tick/Count))
system.tgen.avgWriteLatency              21295.225860                       # Avg latency of write requests ((Tick/Count))
system.tgen.readBW                         3158784000                       # Read bandwidth ((Byte/Second))
system.tgen.writeBW                        2173952000                       # Write bandwidth ((Byte/Second))
system.tgen.power_state.pwrStateResidencyTicks::UNDEFINED   1000000000                       # Cumulative time (in ticks) in various power states (Tick)
system.workload.inst.arm                            0                       # number of arm instructions executed (Count)
system.workload.inst.quiesce                        0                       # number of quiesce instructions executed (Count)

---------- End Simulation Statistics   ----------
