
---------- Begin Simulation Statistics ----------
simSeconds                                   0.001000                       # Number of seconds simulated (Second)
simTicks                                   1000000000                       # Number of ticks simulated (Tick)
finalTick                                  1000000000                       # Number of ticks from beginning of simulation (restored from checkpoints and never reset) (Tick)
simFreq                                  1000000000000                       # The number of ticks per simulated second ((Tick/Second))
hostSeconds                                      0.15                       # Real time elapsed on the host (Second)
hostTickRate                               6809808849                       # The number of ticks simulated per host second (ticks/s) ((Tick/Second))
hostMemory                                     641176                       # Number of bytes of host memory used (Byte)
system.clk_domain.clock                          1000                       # Clock period in ticks (Tick)
system.clk_domain.voltage_domain.voltage            1                       # Voltage in Volts (Volt)
system.mem_ctrl.avgPriority_tgen::samples     83328.00                       # Average QoS priority value for accepted requests (Count)
system.mem_ctrl.priorityMinLatency       0.000000017492                       # per QoS priority minimum request to response latency (Second)
system.mem_ctrl.priorityMaxLatency       0.000003858110                       # per QoS priority maximum request to response latency (Second)
system.mem_ctrl.numReadWriteTurnArounds          2118                       # Number of turnarounds from READ to WRITE (Count)
system.mem_ctrl.numWriteReadTurnArounds          2119                       # Number of turnarounds from WRITE to READ (Count)
system.mem_ctrl.numStayReadState               101764                       # Number of times bus staying in READ state (Count)
system.mem_ctrl.numStayWriteState               32661                       # Number of times bus staying in WRITE state (Count)
system.mem_ctrl.readReqs                        49358                       # Number of read requests accepted (Count)
system.mem_ctrl.writeReqs                       33970                       # Number of write requests accepted (Count)
system.mem_ctrl.readBursts                      49358                       # Number of controller read bursts, including those serviced by the write queue (Count)
system.mem_ctrl.writeBursts                     33970                       # Number of controller write bursts, including those merged in the write queue (Count)
system.mem_ctrl.servicedByWrQ                       0                       # Number of controller read bursts serviced by the write queue (Count)
system.mem_ctrl.mergedWrBursts                      0                       # Number of controller write bursts merged with an existing one (Count)
system.mem_ctrl.neitherReadNorWriteReqs             0                       # Number of requests that are neither read nor write (Count)
system.mem_ctrl.avgRdQLen                        4.01                       # Average read queue length when enqueuing ((Count/Tick))
system.mem_ctrl.avgWrQLen                       27.42                       # Average write queue length when enqueuing ((Count/Tick))
system.mem_ctrl.numRdRetry                          1                       # Number of times read queue was full causing retry (Count)
system.mem_ctrl.numWrRetry                          0                       # Number of times write queue was full causing retry (Count)
system.mem_ctrl.readPktSize::0                      0                       # Read request sizes (log2) (Count)
system.mem_ctrl.readPktSize::1                      0                       # Read request sizes (log2) (Count)
system.mem_ctrl.readPktSize::2                      0                       # Read request sizes (log2) (Count)
system.mem_ctrl.readPktSize::3                      0                       # Read request sizes (log2) (Count)
system.mem_ctrl.readPktSize::4                      0                       # Read request sizes (log2) (Count)
system.mem_ctrl.readPktSize::5                      0                       # Read request sizes (log2) (Count)
system.mem_ctrl.readPktSize::6                  49358                       # Read request sizes (log2) (Count)
system.mem_ctrl.writePktSize::0                     0                       # Write request sizes (log2) (Count)
system.mem_ctrl.writePktSize::1                     0                       # Write request sizes (log2) (Count)
system.mem_ctrl.writePktSize::2                     0                       # Write request sizes (log2) (Count)
system.mem_ctrl.writePktSize::3                     0                       # Write request sizes (log2) (Count)
system.mem_ctrl.writePktSize::4                     0                       # Write request sizes (log2) (Count)
system.mem_ctrl.writePktSize::5                     0                       # Write request sizes (log2) (Count)
system.mem_ctrl.writePktSize::6                 33970                       # Write request sizes (log2) (Count)
system.mem_ctrl.rdQLenPdf::0                    10083                       # What read queue length does an incoming req see (Count)
system.mem_ctrl.rdQLenPdf::1                    16544                       # What read queue length does an incoming req see (Count)
system.mem_ctrl.rdQLenPdf::2                     4227                       # What read queue length does an incoming req see (Count)
system.mem_ctrl.rdQLenPdf::3                     3349                       # What read queue length does an incoming req see (Count)
system.mem_ctrl.rdQLenPdf::4                     3088                       # What read queue length does an incoming req see (Count)
system.mem_ctrl.rdQLenPdf::5                     2788                       # What read queue length does an incoming req see (Count)
system.mem_ctrl.rdQLenPdf::6                     2497                       # What read queue length does an incoming req see (Count)
system.mem_ctrl.rdQLenPdf::7                     1974                       # What read queue length does an incoming req see (Count)
system.mem_ctrl.rdQLenPdf::8                     1333                       # What read queue length does an incoming req see (Count)
system.mem_ctrl.rdQLenPdf::9                      875                       # What read queue length does an incoming req see (Count)
system.mem_ctrl.rdQLenPdf::10                     511                       # What read queue length does an incoming req see (Count)
system.mem_ctrl.rdQLenPdf::11                     322                       # What read queue length does an incoming req see (Count)
system.mem_ctrl.rdQLenPdf::12                     210                       # What read queue length does an incoming req see (Count)
system.mem_ctrl.rdQLenPdf::13                     197                       # What read queue length does an incoming req see (Count)
system.mem_ctrl.rdQLenPdf::14                     182                       # What read queue length does an incoming req see (Count)
system.mem_ctrl.rdQLenPdf::15                     168                       # What read queue length does an incoming req see (Count)
system.mem_ctrl.rdQLenPdf::16                     151                       # What read queue length does an incoming req see (Count)
system.mem_ctrl.rdQLenPdf::17                     142                       # What read queue length does an incoming req see (Count)
system.mem_ctrl.rdQLenPdf::18                     142                       # What read queue length does an incoming req see (Count)
system.mem_ctrl.rdQLenPdf::19                     129                       # What read queue length does an incoming req see (Count)
system.mem_ctrl.rdQLenPdf::20                      95                       # What read queue length does an incoming req see (Count)
system.mem_ctrl.rdQLenPdf::21                      79                       # What read queue length does an incoming req see (Count)
system.mem_ctrl.rdQLenPdf::22                      62                       # What read queue length does an incoming req see (Count)
system.mem_ctrl.rdQLenPdf::23                      59                       # What read queue length does an incoming req see (Count)
system.mem_ctrl.rdQLenPdf::24                      42                       # What read queue length does an incoming req see (Count)
system.mem_ctrl.rdQLenPdf::25                      36                       # What read queue length does an incoming req see (Count)
system.mem_ctrl.rdQLenPdf::26                      25                       # What read queue length does an incoming req see (Count)
system.mem_ctrl.rdQLenPdf::27                      18                       # What read queue length does an incoming req see (Count)
system.mem_ctrl.rdQLenPdf::28                      11                       # What read queue length does an incoming req see (Count)
system.mem_ctrl.rdQLenPdf::29                       9                       # What read queue length does an incoming req see (Count)
system.mem_ctrl.rdQLenPdf::30                       5                       # What read queue length does an incoming req see (Count)
system.mem_ctrl.rdQLenPdf::31                       5                       # What read queue length does an incoming req see (Count)
system.mem_ctrl.wrQLenPdf::0                        1                       # What write queue length does an incoming req see (Count)
system.mem_ctrl.wrQLenPdf::1                        1                       # What write queue length does an incoming req see (Count)
system.mem_ctrl.wrQLenPdf::2                        1                       # What write queue length does an incoming req see (Count)
system.mem_ctrl.wrQLenPdf::3                        1                       # What write queue length does an incoming req see (Count)
system.mem_ctrl.wrQLenPdf::4                        1                       # What write queue length does an incoming req see (Count)
system.mem_ctrl.wrQLenPdf::5                        1                       # What write queue length does an incoming req see (Count)
system.mem_ctrl.wrQLenPdf::6                        1                       # What write queue length does an incoming req see (Count)
system.mem_ctrl.wrQLenPdf::7                        1                       # What write queue length does an incoming req see (Count)
system.mem_ctrl.wrQLenPdf::8                        1                       # What write queue length does an incoming req see (Count)
system.mem_ctrl.wrQLenPdf::9                        1                       # What write queue length does an incoming req see (Count)
system.mem_ctrl.wrQLenPdf::10                       1                       # What write queue length does an incoming req see (Count)
system.mem_ctrl.wrQLenPdf::11                       1                       # What write queue length does an incoming req see (Count)
system.mem_ctrl.wrQLenPdf::12                       1                       # What write queue length does an incoming req see (Count)
system.mem_ctrl.wrQLenPdf::13                       1                       # What write queue length does an incoming req see (Count)
system.mem_ctrl.wrQLenPdf::14                       1                       # What write queue length does an incoming req see (Count)
system.mem_ctrl.wrQLenPdf::15                       2                       # What write queue length does an incoming req see (Count)
system.mem_ctrl.wrQLenPdf::16                       2                       # What write queue length does an incoming req see (Count)
system.mem_ctrl.wrQLenPdf::17                     115                       # What write queue length does an incoming req see (Count)
system.mem_ctrl.wrQLenPdf::18                     428                       # What write queue length does an incoming req see (Count)
system.mem_ctrl.wrQLenPdf::19                    1034                       # What write queue length does an incoming req see (Count)
system.mem_ctrl.wrQLenPdf::20                    1805                       # What write queue length does an incoming req see (Count)
system.mem_ctrl.wrQLenPdf::21                    2146                       # What write queue length does an incoming req see (Count)
system.mem_ctrl.wrQLenPdf::22                    2430                       # What write queue length does an incoming req see (Count)
system.mem_ctrl.wrQLenPdf::23                    2466                       # What write queue length does an incoming req see (Count)
system.mem_ctrl.wrQLenPdf::24                    2850                       # What write queue length does an incoming req see (Count)
system.mem_ctrl.wrQLenPdf::25                    2448                       # What write queue length does an incoming req see (Count)
system.mem_ctrl.wrQLenPdf::26                    2414                       # What write queue length does an incoming req see (Count)
system.mem_ctrl.wrQLenPdf::27                    2372                       # What write queue length does an incoming req see (Count)
system.mem_ctrl.wrQLenPdf::28                    2313                       # What write queue length does an incoming req see (Count)
system.mem_ctrl.wrQLenPdf::29                    2315                       # What write queue length does an incoming req see (Count)
system.mem_ctrl.wrQLenPdf::30                    2276                       # What write queue length does an incoming req see (Count)
system.mem_ctrl.wrQLenPdf::31                    2268                       # What write queue length does an incoming req see (Count)
system.mem_ctrl.wrQLenPdf::32                    2157                       # What write queue length does an incoming req see (Count)
system.mem_ctrl.wrQLenPdf::33                     234                       # What write queue length does an incoming req see (Count)
system.mem_ctrl.wrQLenPdf::34                     228                       # What write queue length does an incoming req see (Count)
system.mem_ctrl.wrQLenPdf::35                     228                       # What write queue length does an incoming req see (Count)
system.mem_ctrl.wrQLenPdf::36                     201                       # What write queue length does an incoming req see (Count)
system.mem_ctrl.wrQLenPdf::37                     192                       # What write queue length does an incoming req see (Count)
system.mem_ctrl.wrQLenPdf::38                     185                       # What write queue length does an incoming req see (Count)
system.mem_ctrl.wrQLenPdf::39                     164                       # What write queue length does an incoming req see (Count)
system.mem_ctrl.wrQLenPdf::40                     142                       # What write queue length does an incoming req see (Count)
system.mem_ctrl.wrQLenPdf::41                     116                       # What write queue length does an incoming req see (Count)
system.mem_ctrl.wrQLenPdf::42                     102                       # What write queue length does an incoming req see (Count)
system.mem_ctrl.wrQLenPdf::43                      77                       # What write queue length does an incoming req see (Count)
system.mem_ctrl.wrQLenPdf::44                      72                       # What write queue length does an incoming req see (Count)
system.mem_ctrl.wrQLenPdf::45                      51                       # What write queue length does an incoming req see (Count)
system.mem_ctrl.wrQLenPdf::46                      41                       # What write queue length does an incoming req see (Count)
system.mem_ctrl.wrQLenPdf::47                      30                       # What write queue length does an incoming req see (Count)
system.mem_ctrl.wrQLenPdf::48                      22                       # What write queue length does an incoming req see (Count)
system.mem_ctrl.wrQLenPdf::49                      14                       # What write queue length does an incoming req see (Count)
system.mem_ctrl.wrQLenPdf::50                       6                       # What write queue length does an incoming req see (Count)
system.mem_ctrl.wrQLenPdf::51                       2                       # What write queue length does an incoming req see (Count)
system.mem_ctrl.wrQLenPdf::52                       1                       # What write queue length does an incoming req see (Count)
system.mem_ctrl.wrQLenPdf::53                       3                       # What write queue length does an incoming req see (Count)
system.mem_ctrl.wrQLenPdf::54                       2                       # What write queue length does an incoming req see (Count)
system.mem_ctrl.wrQLenPdf::55                       1                       # What write queue length does an incoming req see (Count)
system.mem_ctrl.wrQLenPdf::56                       0                       # What write queue length does an incoming req see (Count)
system.mem_ctrl.wrQLenPdf::57                       0                       # What write queue length does an incoming req see (Count)
system.mem_ctrl.wrQLenPdf::58                       0                       # What write queue length does an incoming req see (Count)
system.mem_ctrl.wrQLenPdf::59                       0                       # What write queue length does an incoming req see (Count)
system.mem_ctrl.wrQLenPdf::60                       0                       # What write queue length does an incoming req see (Count)
system.mem_ctrl.wrQLenPdf::61                       0                       # What write queue length does an incoming req see (Count)
system.mem_ctrl.wrQLenPdf::62                       0                       # What write queue length does an incoming req see (Count)
system.mem_ctrl.wrQLenPdf::63                       0                       # What write queue length does an incoming req see (Count)
system.mem_ctrl.rdPerTurnAround::samples         2119                       # Reads before turning the bus around for writes (Count)
system.mem_ctrl.rdPerTurnAround::mean       23.292119                       # Reads before turning the bus around for writes (Count)
system.mem_ctrl.rdPerTurnAround::gmean      21.501434                       # Reads before turning the bus around for writes (Count)
system.mem_ctrl.rdPerTurnAround::stdev       8.871344                       # Reads before turning the bus around for writes (Count)
system.mem_ctrl.rdPerTurnAround::0-3                2      0.09%      0.09% # Reads before turning the bus around for writes (Count)
system.mem_ctrl.rdPerTurnAround::4-7               46      2.17%      2.27% # Reads before turning the bus around for writes (Count)
system.mem_ctrl.rdPerTurnAround::8-11             102      4.81%      7.08% # Reads before turning the bus around for writes (Count)
system.mem_ctrl.rdPerTurnAround::12-15            234     11.04%     18.12% # Reads before turning the bus around for writes (Count)
system.mem_ctrl.rdPerTurnAround::16-19            377     17.79%     35.91% # Reads before turning the bus around for writes (Count)
system.mem_ctrl.rdPerTurnAround::20-23            402     18.97%     54.88% # Reads before turning the bus around for writes (Count)
system.mem_ctrl.rdPerTurnAround::24-27            357     16.85%     71.73% # Reads before turning the bus around for writes (Count)
system.mem_ctrl.rdPerTurnAround::28-31            265     12.51%     84.24% # Reads before turning the bus around for writes (Count)
system.mem_ctrl.rdPerTurnAround::32-35            145      6.84%     91.08% # Reads before turning the bus around for writes (Count)
system.mem_ctrl.rdPerTurnAround::36-39             89      4.20%     95.28% # Reads before turning the bus around for writes (Count)
system.mem_ctrl.rdPerTurnAround::40-43             43      2.03%     97.31% # Reads before turning the bus around for writes (Count)
system.mem_ctrl.rdPerTurnAround::44-47             32      1.51%     98.82% # Reads before turning the bus around for writes (Count)
system.mem_ctrl.rdPerTurnAround::48-51             17      0.80%     99.62% # Reads before turning the bus around for writes (Count)
system.mem_ctrl.rdPerTurnAround::52-55              3      0.14%     99.76% # Reads before turning the bus around for writes (Count)
system.mem_ctrl.rdPerTurnAround::56-59              3      0.14%     99.91% # Reads before turning the bus around for writes (Count)
system.mem_ctrl.rdPerTurnAround::60-63              1      0.05%     99.95% # Reads before turning the bus around for writes (Count)
system.mem_ctrl.rdPerTurnAround::64-67              1      0.05%    100.00% # Reads before turning the bus around for writes (Count)
system.mem_ctrl.rdPerTurnAround::total           2119                       # Reads before turning the bus around for writes (Count)
system.mem_ctrl.wrPerTurnAround::samples         2118                       # Writes before turning the bus around for reads (Count)
system.mem_ctrl.wrPerTurnAround::mean       16.022191                       # Writes before turning the bus around for reads (Count)
system.mem_ctrl.wrPerTurnAround::gmean      16.019944                       # Writes before turning the bus around for reads (Count)
system.mem_ctrl.wrPerTurnAround::stdev       0.297967                       # Writes before turning the bus around for reads (Count)
system.mem_ctrl.wrPerTurnAround::16              2094     98.87%     98.87% # Writes before turning the bus around for reads (Count)
system.mem_ctrl.wrPerTurnAround::17                19      0.90%     99.76% # Writes before turning the bus around for reads (Count)
system.mem_ctrl.wrPerTurnAround::20                 2      0.09%     99.86% # Writes before turning the bus around for reads (Count)
system.mem_ctrl.wrPerTurnAround::21                 1      0.05%     99.91% # Writes before turning the bus around for reads (Count)
system.mem_ctrl.wrPerTurnAround::23                 1      0.05%     99.95% # Writes before turning the bus around for reads (Count)
system.mem_ctrl.wrPerTurnAround::24                 1      0.05%    100.00% # Writes before turning the bus around for reads (Count)
system.mem_ctrl.wrPerTurnAround::total           2118                       # Writes before turning the bus around for reads (Count)
system.mem_ctrl.bytesReadWrQ                        0                       # Total number of bytes read from write queue (Byte)
system.mem_ctrl.bytesReadSys                  3158912                       # Total read bytes from the system interface side (Byte)
system.mem_ctrl.bytesWrittenSys               2174080                       # Total written bytes from the system interface side (Byte)
system.mem_ctrl.avgRdBWSys               3158912000.00000000                       # Average system read bandwidth in Byte/s ((Byte/Second))
system.mem_ctrl.avgWrBWSys               2174080000.00000000                       # Average system write bandwidth in Byte/s ((Byte/Second))
system.mem_ctrl.totGap                      999984608                       # Total gap between requests (Tick)
system.mem_ctrl.avgGap                       12000.58                       # Average gap between requests ((Tick/Count))
system.mem_ctrl.requestorReadBytes::tgen      3158784                       # Per-requestor bytes read from memory (Byte)
system.mem_ctrl.requestorWriteBytes::tgen      2172224                       # Per-requestor bytes write to memory (Byte)
system.mem_ctrl.requestorReadRate::tgen  3158784000.000000000000                       # Per-requestor bytes read from memory rate ((Byte/Second))
system.mem_ctrl.requestorWriteRate::tgen 2172224000.000000000000                       # Per-requestor bytes write to memory rate ((Byte/Second))
system.mem_ctrl.requestorReadAccesses::tgen        49358                       # Per-requestor read serviced memory accesses (Count)
system.mem_ctrl.requestorWriteAccesses::tgen        33970                       # Per-requestor write serviced memory accesses (Count)
system.mem_ctrl.requestorReadTotalLat::tgen   3293114716                       # Per-requestor read total memory access latency (Tick)
system.mem_ctrl.requestorWriteTotalLat::tgen  28088651550                       # Per-requestor write total memory access latency (Tick)
system.mem_ctrl.requestorReadAvgLat::tgen     66718.97                       # Per-requestor read average memory access latency ((Tick/Count))
system.mem_ctrl.requestorWriteAvgLat::tgen    826866.40                       # Per-requestor write average memory access latency ((Tick/Count))
system.mem_ctrl.dram.bytesRead::tgen          3158784                       # Number of bytes read from this memory (Byte)
system.mem_ctrl.dram.bytesRead::total         3158784                       # Number of bytes read from this memory (Byte)
system.mem_ctrl.dram.bytesWritten::tgen       2174080                       # Number of bytes written to this memory (Byte)
system.mem_ctrl.dram.bytesWritten::total      2174080                       # Number of bytes written to this memory (Byte)
system.mem_ctrl.dram.numReads::tgen             49356                       # Number of read requests responded to by this memory (Count)
system.mem_ctrl.dram.numReads::total            49356                       # Number of read requests responded to by this memory (Count)
system.mem_ctrl.dram.numWrites::tgen            33970                       # Number of write requests responded to by this memory (Count)
system.mem_ctrl.dram.numWrites::total           33970                       # Number of write requests responded to by this memory (Count)
system.mem_ctrl.dram.bwRead::tgen          3158784000                       # Total read bandwidth from this memory ((Byte/Second))
system.mem_ctrl.dram.bwRead::total         3158784000                       # Total read bandwidth from this memory ((Byte/Second))
system.mem_ctrl.dram.bwWrite::tgen         2174080000                       # Write bandwidth from this memory ((Byte/Second))
system.mem_ctrl.dram.bwWrite::total        2174080000                       # Write bandwidth from this memory ((Byte/Second))
system.mem_ctrl.dram.bwTotal::tgen         5332864000                       # Total bandwidth to/from this memory ((Byte/Second))
system.mem_ctrl.dram.bwTotal::total        5332864000                       # Total bandwidth to/from this memory ((Byte/Second))
system.mem_ctrl.dram.readBursts                 49356                       # Number of DRAM read bursts (Count)
system.mem_ctrl.dram.writeBursts                33941                       # Number of DRAM write bursts (Count)
system.mem_ctrl.dram.perBankRdBursts::0          1598                       # Per bank write bursts (Count)
system.mem_ctrl.dram.perBankRdBursts::1          1600                       # Per bank write bursts (Count)
system.mem_ctrl.dram.perBankRdBursts::2          1604                       # Per bank write bursts (Count)
system.mem_ctrl.dram.perBankRdBursts::3          1601                       # Per bank write bursts (Count)
system.mem_ctrl.dram.perBankRdBursts::4          1579                       # Per bank write bursts (Count)
system.mem_ctrl.dram.perBankRdBursts::5          1600                       # Per bank write bursts (Count)
system.mem_ctrl.dram.perBankRdBursts::6          1572                       # Per bank write bursts (Count)
system.mem_ctrl.dram.perBankRdBursts::7          1626                       # Per bank write bursts (Count)
system.mem_ctrl.dram.perBankRdBursts::8          1619                       # Per bank write bursts (Count)
system.mem_ctrl.dram.perBankRdBursts::9          1571                       # Per bank write bursts (Count)
system.mem_ctrl.dram.perBankRdBursts::10         1580                       # Per bank write bursts (Count)
system.mem_ctrl.dram.perBankRdBursts::11         1526                       # Per bank write bursts (Count)
system.mem_ctrl.dram.perBankRdBursts::12         1534                       # Per bank write bursts (Count)
system.mem_ctrl.dram.perBankRdBursts::13         1488                       # Per bank write bursts (Count)
system.mem_ctrl.dram.perBankRdBursts::14         1503                       # Per bank write bursts (Count)
system.mem_ctrl.dram.perBankRdBursts::15         1529                       # Per bank write bursts (Count)
system.mem_ctrl.dram.perBankRdBursts::16         1517                       # Per bank write bursts (Count)
system.mem_ctrl.dram.perBankRdBursts::17         1527                       # Per bank write bursts (Count)
system.mem_ctrl.dram.perBankRdBursts::18         1514                       # Per bank write bursts (Count)
system.mem_ctrl.dram.perBankRdBursts::19         1553                       # Per bank write bursts (Count)
system.mem_ctrl.dram.perBankRdBursts::20         1514                       # Per bank write bursts (Count)
system.mem_ctrl.dram.perBankRdBursts::21         1527                       # Per bank write bursts (Count)
system.mem_ctrl.dram.perBankRdBursts::22         1518                       # Per bank write bursts (Count)
system.mem_ctrl.dram.perBankRdBursts::23         1492                       # Per bank write bursts (Count)
system.mem_ctrl.dram.perBankRdBursts::24         1499                       # Per bank write bursts (Count)
system.mem_ctrl.dram.perBankRdBursts::25         1474                       # Per bank write bursts (Count)
system.mem_ctrl.dram.perBankRdBursts::26         1533                       # Per bank write bursts (Count)
system.mem_ctrl.dram.perBankRdBursts::27         1462                       # Per bank write bursts (Count)
system.mem_ctrl.dram.perBankRdBursts::28         1489                       # Per bank write bursts (Count)
system.mem_ctrl.dram.perBankRdBursts::29         1538                       # Per bank write bursts (Count)
system.mem_ctrl.dram.perBankRdBursts::30         1547                       # Per bank write bursts (Count)
system.mem_ctrl.dram.perBankRdBursts::31         1522                       # Per bank write bursts (Count)
system.mem_ctrl.dram.perBankWrBursts::0          1090                       # Per bank write bursts (Count)
system.mem_ctrl.dram.perBankWrBursts::1          1088                       # Per bank write bursts (Count)
system.mem_ctrl.dram.perBankWrBursts::2          1084                       # Per bank write bursts (Count)
system.mem_ctrl.dram.perBankWrBursts::3          1087                       # Per bank write bursts (Count)
system.mem_ctrl.dram.perBankWrBursts::4          1109                       # Per bank write bursts (Count)
system.mem_ctrl.dram.perBankWrBursts::5          1088                       # Per bank write bursts (Count)
system.mem_ctrl.dram.perBankWrBursts::6          1116                       # Per bank write bursts (Count)
system.mem_ctrl.dram.perBankWrBursts::7          1062                       # Per bank write bursts (Count)
system.mem_ctrl.dram.perBankWrBursts::8          1069                       # Per bank write bursts (Count)
system.mem_ctrl.dram.perBankWrBursts::9          1117                       # Per bank write bursts (Count)
system.mem_ctrl.dram.perBankWrBursts::10         1077                       # Per bank write bursts (Count)
system.mem_ctrl.dram.perBankWrBursts::11         1034                       # Per bank write bursts (Count)
system.mem_ctrl.dram.perBankWrBursts::12         1026                       # Per bank write bursts (Count)
system.mem_ctrl.dram.perBankWrBursts::13         1072                       # Per bank write bursts (Count)
system.mem_ctrl.dram.perBankWrBursts::14         1057                       # Per bank write bursts (Count)
system.mem_ctrl.dram.perBankWrBursts::15         1031                       # Per bank write bursts (Count)
system.mem_ctrl.dram.perBankWrBursts::16         1043                       # Per bank write bursts (Count)
system.mem_ctrl.dram.perBankWrBursts::17         1033                       # Per bank write bursts (Count)
system.mem_ctrl.dram.perBankWrBursts::18         1046                       # Per bank write bursts (Count)
system.mem_ctrl.dram.perBankWrBursts::19         1007                       # Per bank write bursts (Count)
system.mem_ctrl.dram.perBankWrBursts::20         1046                       # Per bank write bursts (Count)
system.mem_ctrl.dram.perBankWrBursts::21         1033                       # Per bank write bursts (Count)
system.mem_ctrl.dram.perBankWrBursts::22         1042                       # Per bank write bursts (Count)
system.mem_ctrl.dram.perBankWrBursts::23         1068                       # Per bank write bursts (Count)
system.mem_ctrl.dram.perBankWrBursts::24         1061                       # Per bank write bursts (Count)
system.mem_ctrl.dram.perBankWrBursts::25         1086                       # Per bank write bursts (Count)
system.mem_ctrl.dram.perBankWrBursts::26         1027                       # Per bank write bursts (Count)
system.mem_ctrl.dram.perBankWrBursts::27         1098                       # Per bank write bursts (Count)
system.mem_ctrl.dram.perBankWrBursts::28         1071                       # Per bank write bursts (Count)
system.mem_ctrl.dram.perBankWrBursts::29         1022                       # Per bank write bursts (Count)
system.mem_ctrl.dram.perBankWrBursts::30         1013                       # Per bank write bursts (Count)
system.mem_ctrl.dram.perBankWrBursts::31         1038                       # Per bank write bursts (Count)
system.mem_ctrl.dram.totQLat               2429779564                       # Total ticks spent queuing (Tick)
system.mem_ctrl.dram.totBusLat              164454192                       # Total ticks spent in databus transfers (Tick)
system.mem_ctrl.dram.totMemAccLat          3293114716                       # Total ticks spent from burst creation until serviced by the DRAM (Tick)
system.mem_ctrl.dram.avgQLat                 49229.67                       # Average queueing delay per DRAM burst ((Tick/Count))
system.mem_ctrl.dram.avgBusLat                3332.00                       # Average bus latency per DRAM burst ((Tick/Count))
system.mem_ctrl.dram.avgMemAccLat            66721.67                       # Average memory access latency per DRAM burst ((Tick/Count))
system.mem_ctrl.dram.readRowHits                45915                       # Number of row buffer hits during reads (Count)
system.mem_ctrl.dram.writeRowHits               31999                       # Number of row buffer hits during writes (Count)
system.mem_ctrl.dram.readRowHitRate             93.03                       # Row buffer hit rate for reads (Ratio)
system.mem_ctrl.dram.writeRowHitRate            94.28                       # Row buffer hit rate for writes (Ratio)
system.mem_ctrl.dram.bytesPerActivate::samples         5381                       # Bytes accessed per row activation (Byte)
system.mem_ctrl.dram.bytesPerActivate::mean   990.554915                       # Bytes accessed per row activation (Byte)
system.mem_ctrl.dram.bytesPerActivate::gmean   962.409731                       # Bytes accessed per row activation (Byte)
system.mem_ctrl.dram.bytesPerActivate::stdev   146.765693                       # Bytes accessed per row activation (Byte)
system.mem_ctrl.dram.bytesPerActivate::0-127           36      0.67%      0.67% # Bytes accessed per row activation (Byte)
system.mem_ctrl.dram.bytesPerActivate::128-255           43      0.80%      1.47% # Bytes accessed per row activation (Byte)
system.mem_ctrl.dram.bytesPerActivate::256-383           36      0.67%      2.14% # Bytes accessed per row activation (Byte)
system.mem_ctrl.dram.bytesPerActivate::384-511           55      1.02%      3.16% # Bytes accessed per row activation (Byte)
system.mem_ctrl.dram.bytesPerActivate::512-639           40      0.74%      3.90% # Bytes accessed per row activation (Byte)
system.mem_ctrl.dram.bytesPerActivate::640-767           51      0.95%      4.85% # Bytes accessed per row activation (Byte)
system.mem_ctrl.dram.bytesPerActivate::768-895           32      0.59%      5.45% # Bytes accessed per row activation (Byte)
system.mem_ctrl.dram.bytesPerActivate::896-1023           58      1.08%      6.52% # Bytes accessed per row activation (Byte)
system.mem_ctrl.dram.bytesPerActivate::1024-1151         5030     93.48%    100.00% # Bytes accessed per row activation (Byte)
system.mem_ctrl.dram.bytesPerActivate::total         5381                       # Bytes accessed per row activation (Byte)
system.mem_ctrl.dram.dramBytesRead            3158784                       # Total bytes read (Byte)
system.mem_ctrl.dram.dramBytesWritten         2172224                       # Total bytes written (Byte)
system.mem_ctrl.dram.avgRdBW              3158.784000                       # Average DRAM read bandwidth in MiBytes/s ((Byte/Second))
system.mem_ctrl.dram.avgWrBW              2172.224000                       # Average DRAM write bandwidth in MiBytes/s ((Byte/Second))
system.mem_ctrl.dram.peakBW                  19207.00                       # Theoretical peak bandwidth in MiByte/s ((Byte/Second))
system.mem_ctrl.dram.busUtil                    27.76                       # Data bus utilization in percentage (Ratio)
system.mem_ctrl.dram.busUtilRead                16.45                       # Data bus utilization in percentage for reads (Ratio)
system.mem_ctrl.dram.busUtilWrite               11.31                       # Data bus utilization in percentage for writes (Ratio)
system.mem_ctrl.dram.pageHitRate                93.54                       # Row buffer hit rate, read and write combined (Ratio)
system.mem_ctrl.dram.power_state.pwrStateResidencyTicks::UNDEFINED   1000000000                       # Cumulative time (in ticks) in various power states (Tick)
system.mem_ctrl.dram.rank0.actEnergy     8536024.224000                       # Energy for activate commands per rank (pJ) (Joule)
system.mem_ctrl.dram.rank0.preEnergy     11340242.088000                       # Energy for precharge commands per rank (pJ) (Joule)
system.mem_ctrl.dram.rank0.readEnergy    105704741.184000                       # Energy for read commands per rank (pJ) (Joule)
system.mem_ctrl.dram.rank0.writeEnergy   64668682.176000                       # Energy for write commands per rank (pJ) (Joule)
system.mem_ctrl.dram.rank0.refreshEnergy 177328336.281601                       # Energy for refresh commands per rank (pJ) (Joule)
system.mem_ctrl.dram.rank0.actBackEnergy 517365750.888000                       # Energy for active background per rank (pJ) (Joule)
system.mem_ctrl.dram.rank0.preBackEnergy 255276472.550400                       # Energy for precharge background per rank (pJ) (Joule)
system.mem_ctrl.dram.rank0.actPowerDownEnergy            0                       # Energy for active power-down per rank (pJ) (Joule)
system.mem_ctrl.dram.rank0.prePowerDownEnergy            0                       # Energy for precharge power-down per rank (pJ) (Joule)
system.mem_ctrl.dram.rank0.selfRefreshEnergy            0                       # Energy for self refresh per rank (pJ) (Joule)
system.mem_ctrl.dram.rank0.totalEnergy   1140220249.392000                       # Total energy per rank (pJ) (Joule)
system.mem_ctrl.dram.rank0.averagePower   1140.220249                       # Core power per rank (mW) (Watt)
system.mem_ctrl.dram.rank0.totalIdleTime            0                       # Total Idle time Per DRAM Rank (Tick)
system.mem_ctrl.dram.rank0.pwrStateTime::IDLE    382944752                       # Time in different power states (Tick)
system.mem_ctrl.dram.rank0.pwrStateTime::REF     44800000                       # Time in different power states (Tick)
system.mem_ctrl.dram.rank0.pwrStateTime::SREF            0                       # Time in different power states (Tick)
system.mem_ctrl.dram.rank0.pwrStateTime::PRE_PDN            0                       # Time in different power states (Tick)
system.mem_ctrl.dram.rank0.pwrStateTime::ACT    572255248                       # Time in different power states (Tick)
system.mem_ctrl.dram.rank0.pwrStateTime::ACT_PDN            0                       # Time in different power states (Tick)
system.mem_ctrl.dram.rank1.actEnergy     8249099.040000                       # Energy for activate commands per rank (pJ) (Joule)
system.mem_ctrl.dram.rank1.preEnergy     10967071.416000                       # Energy for precharge commands per rank (pJ) (Joule)
system.mem_ctrl.dram.rank1.readEnergy    101902230.796800                       # Energy for read commands per rank (pJ) (Joule)
system.mem_ctrl.dram.rank1.writeEnergy   62894672.064000                       # Energy for write commands per rank (pJ) (Joule)
system.mem_ctrl.dram.rank1.refreshEnergy 177328336.281601                       # Energy for refresh commands per rank (pJ) (Joule)
system.mem_ctrl.dram.rank1.actBackEnergy 507294940.824000                       # Energy for active background per rank (pJ) (Joule)
system.mem_ctrl.dram.rank1.preBackEnergy 263014496.102400                       # Energy for precharge background per rank (pJ) (Joule)
system.mem_ctrl.dram.rank1.actPowerDownEnergy            0                       # Energy for active power-down per rank (pJ) (Joule)
system.mem_ctrl.dram.rank1.prePowerDownEnergy            0                       # Energy for precharge power-down per rank (pJ) (Joule)
system.mem_ctrl.dram.rank1.selfRefreshEnergy            0                       # Energy for self refresh per rank (pJ) (Joule)
system.mem_ctrl.dram.rank1.totalEnergy   1131650846.524800                       # Total energy per rank (pJ) (Joule)
system.mem_ctrl.dram.rank1.averagePower   1131.650847                       # Core power per rank (mW) (Watt)
system.mem_ctrl.dram.rank1.totalIdleTime            0                       # Total Idle time Per DRAM Rank (Tick)
system.mem_ctrl.dram.rank1.pwrStateTime::IDLE    394358472                       # Time in different power states (Tick)
system.mem_ctrl.dram.rank1.pwrStateTime::REF     44800000                       # Time in different power states (Tick)
system.mem_ctrl.dram.rank1.pwrStateTime::SREF            0                       # Time in different power states (Tick)
system.mem_ctrl.dram.rank1.pwrStateTime::PRE_PDN            0                       # Time in different power states (Tick)
system.mem_ctrl.dram.rank1.pwrStateTime::ACT    560841528                       # Time in different power states (Tick)
system.mem_ctrl.dram.rank1.pwrStateTime::ACT_PDN            0                       # Time in different power states (Tick)
system.mem_ctrl.power_state.pwrStateResidencyTicks::UNDEFINED   1000000000                       # Cumulative time (in ticks) in various power states (Tick)
system.membus.transDist::ReadReq                49358                       # Transaction distribution (Count)
system.membus.transDist::ReadResp               49356                       # Transaction distribution (Count)
system.membus.transDist::WriteReq               33970                       # Transaction distribution (Count)
system.membus.transDist::WriteResp              33968                       # Transaction distribution (Count)
system.membus.pktCount_system.tgen.port::system.mem_ctrl.port       166652                       # Packet count per connected requestor and responder (Count)
system.membus.pktSize_system.tgen.port::system.mem_ctrl.port      5332864                       # Cumulative packet size per connected requestor and responder (Byte)
system.membus.snoops                                0                       # Total snoops (Count)
system.membus.snoopTraffic                          0                       # Total snoop traffic (Byte)
system.membus.snoopFanout::samples              83329                       # Request fanout histogram (Count)
system.membus.snoopFanout::mean                     0                       # Request fanout histogram (Count)
system.membus.snoopFanout::stdev                    0                       # Request fanout histogram (Count)
system.membus.snoopFanout::underflows               0      0.00%      0.00% # Request fanout histogram (Count)
system.membus.snoopFanout::0                    83329    100.00%    100.00% # Request fanout histogram (Count)
system.membus.snoopFanout::overflows                0      0.00%    100.00% # Request fanout histogram (Count)
system.membus.snoopFanout::min_value                0                       # Request fanout histogram (Count)
system.membus.snoopFanout::max_value                0                       # Request fanout histogram (Count)
system.membus.snoopFanout::total                83329                       # Request fanout histogram (Count)
system.membus.power_state.pwrStateResidencyTicks::UNDEFINED   1000000000                       # Cumulative time (in ticks) in various power states (Tick)
system.membus.reqLayer0.occupancy           135196152                       # Layer occupancy (ticks) (Tick)
system.membus.reqLayer0.utilization               0.1                       # Layer utilization (Ratio)
system.membus.respLayer0.occupancy          155520502                       # Layer occupancy (ticks) (Tick)
system.membus.respLayer0.utilization              0.2                       # Layer utilization (Ratio)
system.membus.snoop_filter.totRequests              0                       # Total number of requests made to the snoop filter. (Count)
system.membus.snoop_filter.hitSingleRequests            0                       # Number of requests hitting in the snoop filter with a single holder of the requested data. (Count)
system.membus.snoop_filter.hitMultiRequests            0                       # Number of requests hitting in the snoop filter with multiple (>1) holders of the requested data. (Count)
system.membus.snoop_filter.totSnoops                0                       # Total number of snoops made to the snoop filter. (Count)
system.membus.snoop_filter.hitSingleSnoops            0                       # Number of snoops hitting in the snoop filter with a single holder of the requested data. (Count)
system.membus.snoop_filter.hitMultiSnoops            0                       # Number of snoops hitting in the snoop filter with multiple (>1) holders of the requested data. (Count)
system.tgen.numSuppressed                           0                       # Number of suppressed packets to non-memory space (Count)
system.tgen.numPackets                          83328                       # Number of packets generated (Count)
system.tgen.numRetries                              2                       # Number of retries (Count)
system.tgen.retryTicks                          74000                       # Time spent waiting due to back-pressure (Tick)
system.tgen.bytesRead                         3158784                       # Number of bytes read (Byte)
system.tgen.bytesWritten                      2173952                       # Number of bytes written (Byte)
system.tgen.totalReadLatency               4807734352                       # Total latency of read requests (Tick)
system.tgen.totalWriteLatency               723356232                       # Total latency of write requests (Tick)
system.tgen.totalReads                          49356                       # Total num of reads (Count)
system.tgen.totalWrites                         33968                       # Total num of writes (Count)
system.tgen.avgReadLatency               97409.319070                       # Avg latency of read requests ((Tick/Count))
system.tgen.avgWriteLatency              21295.225860                       # Avg latency of write requests ((Tick/Count))
system.tgen.readBW                         3158784000                       # Read bandwidth ((Byte/Second))
system.tgen.writeBW                        2173952000                       # Write bandwidth ((Byte/Second))
system.tgen.power_state.pwrStateResidencyTicks::UNDEFINED   1000000000                       # Cumulative time (in ticks) in various power states (Tick)
system.workload.inst.arm                            0                       # number of arm instructions executed (Count)
system.workload.inst.quiesce                        0                       # number of quiesce instructions executed (Count)

---------- End Simulation Statistics   ----------
