
---------- Begin Simulation Statistics ----------
simSeconds                                   0.001000                       # Number of seconds simulated (Second)
simTicks                                   1000088000                       # Number of ticks simulated (Tick)
finalTick                                  1000088000                       # Number of ticks from beginning of simulation (restored from checkpoints and never reset) (Tick)
simFreq                                  1000000000000                       # The number of ticks per simulated second ((Tick/Second))
hostSeconds                                      0.08                       # Real time elapsed on the host (Second)
hostTickRate                              11836201387                       # The number of ticks simulated per host second (ticks/s) ((Tick/Second))
hostMemory                                     650816                       # Number of bytes of host memory used (Byte)
system.clk_domain.clock                          1000                       # Clock period in ticks (Tick)
system.clk_domain.voltage_domain.voltage            1                       # Voltage in Volts (Volt)
system.comm_monitor.readBurstLengthHist::samples        12095                       # Histogram of burst lengths of transmitted packets (Byte)
system.comm_monitor.readBurstLengthHist::mean           64                       # Histogram of burst lengths of transmitted packets (Byte)
system.comm_monitor.readBurstLengthHist::gmean    64.000000                       # Histogram of burst lengths of transmitted packets (Byte)
system.comm_monitor.readBurstLengthHist::stdev            0                       # Histogram of burst lengths of transmitted packets (Byte)
system.comm_monitor.readBurstLengthHist::0-3            0      0.00%      0.00% # Histogram of burst lengths of transmitted packets (Byte)
system.comm_monitor.readBurstLengthHist::4-7            0      0.00%      0.00% # Histogram of burst lengths of transmitted packets (Byte)
system.comm_monitor.readBurstLengthHist::8-11            0      0.00%      0.00% # Histogram of burst lengths of transmitted packets (Byte)
system.comm_monitor.readBurstLengthHist::12-15            0      0.00%      0.00% # Histogram of burst lengths of transmitted packets (Byte)
system.comm_monitor.readBurstLengthHist::16-19            0      0.00%      0.00% # Histogram of burst lengths of transmitted packets (Byte)
system.comm_monitor.readBurstLengthHist::20-23            0      0.00%      0.00% # Histogram of burst lengths of transmitted packets (Byte)
system.comm_monitor.readBurstLengthHist::24-27            0      0.00%      0.00% # Histogram of burst lengths of transmitted packets (Byte)
system.comm_monitor.readBurstLengthHist::28-31            0      0.00%      0.00% # Histogram of burst lengths of transmitted packets (Byte)
system.comm_monitor.readBurstLengthHist::32-35            0      0.00%      0.00% # Histogram of burst lengths of transmitted packets (Byte)
system.comm_monitor.readBurstLengthHist::36-39            0      0.00%      0.00% # Histogram of burst lengths of transmitted packets (Byte)
system.comm_monitor.readBurstLengthHist::40-43            0      0.00%      0.00% # Histogram of burst lengths of transmitted packets (Byte)
system.comm_monitor.readBurstLengthHist::44-47            0      0.00%      0.00% # Histogram of burst lengths of transmitted packets (Byte)
system.comm_monitor.readBurstLengthHist::48-51            0      0.00%      0.00% # Histogram of burst lengths of transmitted packets (Byte)
system.comm_monitor.readBurstLengthHist::52-55            0      0.00%      0.00% # Histogram of burst lengths of transmitted packets (Byte)
system.comm_monitor.readBurstLengthHist::56-59            0      0.00%      0.00% # Histogram of burst lengths of transmitted packets (Byte)
system.comm_monitor.readBurstLengthHist::60-63            0      0.00%      0.00% # Histogram of burst lengths of transmitted packets (Byte)
system.comm_monitor.readBurstLengthHist::64-67        12095    100.00%    100.00% # Histogram of burst lengths of transmitted packets (Byte)
system.comm_monitor.readBurstLengthHist::68-71            0      0.00%    100.00% # Histogram of burst lengths of transmitted packets (Byte)
system.comm_monitor.readBurstLengthHist::72-75            0      0.00%    100.00% # Histogram of burst lengths of transmitted packets (Byte)
system.comm_monitor.readBurstLengthHist::76-79            0      0.00%    100.00% # Histogram of burst lengths of transmitted packets (Byte)
system.comm_monitor.readBurstLengthHist::total        12095                       # Histogram of burst lengths of transmitted packets (Byte)
system.comm_monitor.writeBurstLengthHist::samples        28359                       # Histogram of burst lengths of transmitted packets (Byte)
system.comm_monitor.writeBurstLengthHist::mean           64                       # Histogram of burst lengths of transmitted packets (Byte)
system.comm_monitor.writeBurstLengthHist::gmean    64.000000                       # Histogram of burst lengths of transmitted packets (Byte)
system.comm_monitor.writeBurstLengthHist::stdev            0                       # Histogram of burst lengths of transmitted packets (Byte)
system.comm_monitor.writeBurstLengthHist::0-3            0      0.00%      0.00% # Histogram of burst lengths of transmitted packets (Byte)
system.comm_monitor.writeBurstLengthHist::4-7            0      0.00%      0.00% # Histogram of burst lengths of transmitted packets (Byte)
system.comm_monitor.writeBurstLengthHist::8-11            0      0.00%      0.00% # Histogram of burst lengths of transmitted packets (Byte)
system.comm_monitor.writeBurstLengthHist::12-15            0      0.00%      0.00% # Histogram of burst lengths of transmitted packets (Byte)
system.comm_monitor.writeBurstLengthHist::16-19            0      0.00%      0.00% # Histogram of burst lengths of transmitted packets (Byte)
system.comm_monitor.writeBurstLengthHist::20-23            0      0.00%      0.00% # Histogram of burst lengths of transmitted packets (Byte)
system.comm_monitor.writeBurstLengthHist::24-27            0      0.00%      0.00% # Histogram of burst lengths of transmitted packets (Byte)
system.comm_monitor.writeBurstLengthHist::28-31            0      0.00%      0.00% # Histogram of burst lengths of transmitted packets (Byte)
system.comm_monitor.writeBurstLengthHist::32-35            0      0.00%      0.00% # Histogram of burst lengths of transmitted packets (Byte)
system.comm_monitor.writeBurstLengthHist::36-39            0      0.00%      0.00% # Histogram of burst lengths of transmitted packets (Byte)
system.comm_monitor.writeBurstLengthHist::40-43            0      0.00%      0.00% # Histogram of burst lengths of transmitted packets (Byte)
system.comm_monitor.writeBurstLengthHist::44-47            0      0.00%      0.00% # Histogram of burst lengths of transmitted packets (Byte)
system.comm_monitor.writeBurstLengthHist::48-51            0      0.00%      0.00% # Histogram of burst lengths of transmitted packets (Byte)
system.comm_monitor.writeBurstLengthHist::52-55            0      0.00%      0.00% # Histogram of burst lengths of transmitted packets (Byte)
system.comm_monitor.writeBurstLengthHist::56-59            0      0.00%      0.00% # Histogram of burst lengths of transmitted packets (Byte)
system.comm_monitor.writeBurstLengthHist::60-63            0      0.00%      0.00% # Histogram of burst lengths of transmitted packets (Byte)
system.comm_monitor.writeBurstLengthHist::64-67        28359    100.00%    100.00% # Histogram of burst lengths of transmitted packets (Byte)
system.comm_monitor.writeBurstLengthHist::68-71            0      0.00%    100.00% # Histogram of burst lengths of transmitted packets (Byte)
system.comm_monitor.writeBurstLengthHist::72-75            0      0.00%    100.00% # Histogram of burst lengths of transmitted packets (Byte)
system.comm_monitor.writeBurstLengthHist::76-79            0      0.00%    100.00% # Histogram of burst lengths of transmitted packets (Byte)
system.comm_monitor.writeBurstLengthHist::total        28359                       # Histogram of burst lengths of transmitted packets (Byte)
system.comm_monitor.readBandwidthHist::samples            1                       # Histogram of read bandwidth per sample period ((Byte/Second))
system.comm_monitor.readBandwidthHist::mean    774016000                       # Histogram of read bandwidth per sample period ((Byte/Second))
system.comm_monitor.readBandwidthHist::gmean    774016000                       # Histogram of read bandwidth per sample period ((Byte/Second))
system.comm_monitor.readBandwidthHist::stdev          nan                       # Histogram of read bandwidth per sample period ((Byte/Second))
system.comm_monitor.readBandwidthHist::0-6.71089e+07            0      0.00%      0.00% # Histogram of read bandwidth per sample period ((Byte/Second))
system.comm_monitor.readBandwidthHist::6.71089e+07-1.34218e+08            0      0.00%      0.00% # Histogram of read bandwidth per sample period ((Byte/Second))
system.comm_monitor.readBandwidthHist::1.34218e+08-2.01327e+08            0      0.00%      0.00% # Histogram of read bandwidth per sample period ((Byte/Second))
system.comm_monitor.readBandwidthHist::2.01327e+08-2.68435e+08            0      0.00%      0.00% # Histogram of read bandwidth per sample period ((Byte/Second))
system.comm_monitor.readBandwidthHist::2.68435e+08-3.35544e+08            0      0.00%      0.00% # Histogram of read bandwidth per sample period ((Byte/Second))
system.comm_monitor.readBandwidthHist::3.35544e+08-4.02653e+08            0      0.00%      0.00% # Histogram of read bandwidth per sample period ((Byte/Second))
system.comm_monitor.readBandwidthHist::4.02653e+08-4.69762e+08            0      0.00%      0.00% # Histogram of read bandwidth per sample period ((Byte/Second))
system.comm_monitor.readBandwidthHist::4.69762e+08-5.36871e+08            0      0.00%      0.00% # Histogram of read bandwidth per sample period ((Byte/Second))
system.comm_monitor.readBandwidthHist::5.36871e+08-6.0398e+08            0      0.00%      0.00% # Histogram of read bandwidth per sample period ((Byte/Second))
system.comm_monitor.readBandwidthHist::6.0398e+08-6.71089e+08            0      0.00%      0.00% # Histogram of read bandwidth per sample period ((Byte/Second))
system.comm_monitor.readBandwidthHist::6.71089e+08-7.38198e+08            0      0.00%      0.00% # Histogram of read bandwidth per sample period ((Byte/Second))
system.comm_monitor.readBandwidthHist::7.38198e+08-8.05306e+08            1    100.00%    100.00% # Histogram of read bandwidth per sample period ((Byte/Second))
system.comm_monitor.readBandwidthHist::8.05306e+08-8.72415e+08            0      0.00%    100.00% # Histogram of read bandwidth per sample period ((Byte/Second))
system.comm_monitor.readBandwidthHist::8.72415e+08-9.39524e+08            0      0.00%    100.00% # Histogram of read bandwidth per sample period ((Byte/Second))
system.comm_monitor.readBandwidthHist::9.39524e+08-1.00663e+09            0      0.00%    100.00% # Histogram of read bandwidth per sample period ((Byte/Second))
system.comm_monitor.readBandwidthHist::1.00663e+09-1.07374e+09            0      0.00%    100.00% # Histogram of read bandwidth per sample period ((Byte/Second))
system.comm_monitor.readBandwidthHist::1.07374e+09-1.14085e+09            0      0.00%    100.00% # Histogram of read bandwidth per sample period ((Byte/Second))
system.comm_monitor.readBandwidthHist::1.14085e+09-1.20796e+09            0      0.00%    100.00% # Histogram of read bandwidth per sample period ((Byte/Second))
system.comm_monitor.readBandwidthHist::1.20796e+09-1.27507e+09            0      0.00%    100.00% # Histogram of read bandwidth per sample period ((Byte/Second))
system.comm_monitor.readBandwidthHist::1.27507e+09-1.34218e+09            0      0.00%    100.00% # Histogram of read bandwidth per sample period ((Byte/Second))
system.comm_monitor.readBandwidthHist::total            1                       # Histogram of read bandwidth per sample period ((Byte/Second))
system.comm_monitor.totalReadBytes             774080                       # Number of bytes read (Byte)
system.comm_monitor.averageReadBandwidth 774011886.953948      0.00%      0.00% # Average read bandwidth ((Byte/Second))
system.comm_monitor.writeBandwidthHist::samples            1                       # Histogram of write bandwidth ((Byte/Second))
system.comm_monitor.writeBandwidthHist::mean   1814912000                       # Histogram of write bandwidth ((Byte/Second))
system.comm_monitor.writeBandwidthHist::gmean 1814911999.999999                       # Histogram of write bandwidth ((Byte/Second))
system.comm_monitor.writeBandwidthHist::stdev          nan                       # Histogram of write bandwidth ((Byte/Second))
system.comm_monitor.writeBandwidthHist::0-1.34218e+08            0      0.00%      0.00% # Histogram of write bandwidth ((Byte/Second))
system.comm_monitor.writeBandwidthHist::1.34218e+08-2.68435e+08            0      0.00%      0.00% # Histogram of write bandwidth ((Byte/Second))
system.comm_monitor.writeBandwidthHist::2.68435e+08-4.02653e+08            0      0.00%      0.00% # Histogram of write bandwidth ((Byte/Second))
system.comm_monitor.writeBandwidthHist::4.02653e+08-5.36871e+08            0      0.00%      0.00% # Histogram of write bandwidth ((Byte/Second))
system.comm_monitor.writeBandwidthHist::5.36871e+08-6.71089e+08            0      0.00%      0.00% # Histogram of write bandwidth ((Byte/Second))
system.comm_monitor.writeBandwidthHist::6.71089e+08-8.05306e+08            0      0.00%      0.00% # Histogram of write bandwidth ((Byte/Second))
system.comm_monitor.writeBandwidthHist::8.05306e+08-9.39524e+08            0      0.00%      0.00% # Histogram of write bandwidth ((Byte/Second))
system.comm_monitor.writeBandwidthHist::9.39524e+08-1.07374e+09            0      0.00%      0.00% # Histogram of write bandwidth ((Byte/Second))
system.comm_monitor.writeBandwidthHist::1.07374e+09-1.20796e+09            0      0.00%      0.00% # Histogram of write bandwidth ((Byte/Second))
system.comm_monitor.writeBandwidthHist::1.20796e+09-1.34218e+09            0      0.00%      0.00% # Histogram of write bandwidth ((Byte/Second))
system.comm_monitor.writeBandwidthHist::1.34218e+09-1.4764e+09            0      0.00%      0.00% # Histogram of write bandwidth ((Byte/Second))
system.comm_monitor.writeBandwidthHist::1.4764e+09-1.61061e+09            0      0.00%      0.00% # Histogram of write bandwidth ((Byte/Second))
system.comm_monitor.writeBandwidthHist::1.61061e+09-1.74483e+09            0      0.00%      0.00% # Histogram of write bandwidth ((Byte/Second))
system.comm_monitor.writeBandwidthHist::1.74483e+09-1.87905e+09            1    100.00%    100.00% # Histogram of write bandwidth ((Byte/Second))
system.comm_monitor.writeBandwidthHist::1.87905e+09-2.01327e+09            0      0.00%    100.00% # Histogram of write bandwidth ((Byte/Second))
system.comm_monitor.writeBandwidthHist::2.01327e+09-2.14748e+09            0      0.00%    100.00% # Histogram of write bandwidth ((Byte/Second))
system.comm_monitor.writeBandwidthHist::2.14748e+09-2.2817e+09            0      0.00%    100.00% # Histogram of write bandwidth ((Byte/Second))
system.comm_monitor.writeBandwidthHist::2.2817e+09-2.41592e+09            0      0.00%    100.00% # Histogram of write bandwidth ((Byte/Second))
system.comm_monitor.writeBandwidthHist::2.41592e+09-2.55014e+09            0      0.00%    100.00% # Histogram of write bandwidth ((Byte/Second))
system.comm_monitor.writeBandwidthHist::2.55014e+09-2.68435e+09            0      0.00%    100.00% # Histogram of write bandwidth ((Byte/Second))
system.comm_monitor.writeBandwidthHist::total            1                       # Histogram of write bandwidth ((Byte/Second))
system.comm_monitor.totalWrittenBytes         1814976                       # Number of bytes written ((Byte/Second))
system.comm_monitor.averageWriteBandwidth 1814816296.165937      0.00%      0.00% # Average write bandwidth ((Byte/Second))
system.comm_monitor.readLatencyHist::samples        12095                       # Read request-response latency (Tick)
system.comm_monitor.readLatencyHist::mean 64776.767259                       # Read request-response latency (Tick)
system.comm_monitor.readLatencyHist::gmean 57264.250756                       # Read request-response latency (Tick)
system.comm_monitor.readLatencyHist::stdev 48432.981551                       # Read request-response latency (Tick)
system.comm_monitor.readLatencyHist::0-32767            0      0.00%      0.00% # Read request-response latency (Tick)
system.comm_monitor.readLatencyHist::32768-65535        10325     85.37%     85.37% # Read request-response latency (Tick)
system.comm_monitor.readLatencyHist::65536-98303          100      0.83%     86.19% # Read request-response latency (Tick)
system.comm_monitor.readLatencyHist::98304-131071          690      5.70%     91.90% # Read request-response latency (Tick)
system.comm_monitor.readLatencyHist::131072-163839          465      3.84%     95.74% # Read request-response latency (Tick)
system.comm_monitor.readLatencyHist::163840-196607          322      2.66%     98.40% # Read request-response latency (Tick)
system.comm_monitor.readLatencyHist::196608-229375           48      0.40%     98.80% # Read request-response latency (Tick)
system.comm_monitor.readLatencyHist::229376-262143           14      0.12%     98.92% # Read request-response latency (Tick)
system.comm_monitor.readLatencyHist::262144-294911            2      0.02%     98.93% # Read request-response latency (Tick)
system.comm_monitor.readLatencyHist::294912-327679            4      0.03%     98.97% # Read request-response latency (Tick)
system.comm_monitor.readLatencyHist::327680-360447            9      0.07%     99.04% # Read request-response latency (Tick)
system.comm_monitor.readLatencyHist::360448-393215           46      0.38%     99.42% # Read request-response latency (Tick)
system.comm_monitor.readLatencyHist::393216-425983           56      0.46%     99.88% # Read request-response latency (Tick)
system.comm_monitor.readLatencyHist::425984-458751            2      0.02%     99.90% # Read request-response latency (Tick)
system.comm_monitor.readLatencyHist::458752-491519            0      0.00%     99.90% # Read request-response latency (Tick)
system.comm_monitor.readLatencyHist::491520-524287            5      0.04%     99.94% # Read request-response latency (Tick)
system.comm_monitor.readLatencyHist::524288-557055            3      0.02%     99.97% # Read request-response latency (Tick)
system.comm_monitor.readLatencyHist::557056-589823            4      0.03%    100.00% # Read request-response latency (Tick)
system.comm_monitor.readLatencyHist::589824-622591            0      0.00%    100.00% # Read request-response latency (Tick)
system.comm_monitor.readLatencyHist::622592-655359            0      0.00%    100.00% # Read request-response latency (Tick)
system.comm_monitor.readLatencyHist::total        12095                       # Read request-response latency (Tick)
system.comm_monitor.writeLatencyHist::samples         8388                       # Write request-response latency (Tick)
system.comm_monitor.writeLatencyHist::mean        21000                       # Write request-response latency (Tick)
system.comm_monitor.writeLatencyHist::gmean 21000.000000                       # Write request-response latency (Tick)
system.comm_monitor.writeLatencyHist::stdev            0                       # Write request-response latency (Tick)
system.comm_monitor.writeLatencyHist::0-2047            0      0.00%      0.00% # Write request-response latency (Tick)
system.comm_monitor.writeLatencyHist::2048-4095            0      0.00%      0.00% # Write request-response latency (Tick)
system.comm_monitor.writeLatencyHist::4096-6143            0      0.00%      0.00% # Write request-response latency (Tick)
system.comm_monitor.writeLatencyHist::6144-8191            0      0.00%      0.00% # Write request-response latency (Tick)
system.comm_monitor.writeLatencyHist::8192-10239            0      0.00%      0.00% # Write request-response latency (Tick)
system.comm_monitor.writeLatencyHist::10240-12287            0      0.00%      0.00% # Write request-response latency (Tick)
system.comm_monitor.writeLatencyHist::12288-14335            0      0.00%      0.00% # Write request-response latency (Tick)
system.comm_monitor.writeLatencyHist::14336-16383            0      0.00%      0.00% # Write request-response latency (Tick)
system.comm_monitor.writeLatencyHist::16384-18431            0      0.00%      0.00% # Write request-response latency (Tick)
system.comm_monitor.writeLatencyHist::18432-20479            0      0.00%      0.00% # Write request-response latency (Tick)
system.comm_monitor.writeLatencyHist::20480-22527         8388    100.00%    100.00% # Write request-response latency (Tick)
system.comm_monitor.writeLatencyHist::22528-24575            0      0.00%    100.00% # Write request-response latency (Tick)
system.comm_monitor.writeLatencyHist::24576-26623            0      0.00%    100.00% # Write request-response latency (Tick)
system.comm_monitor.writeLatencyHist::26624-28671            0      0.00%    100.00% # Write request-response latency (Tick)
system.comm_monitor.writeLatencyHist::28672-30719            0      0.00%    100.00% # Write request-response latency (Tick)
system.comm_monitor.writeLatencyHist::30720-32767            0      0.00%    100.00% # Write request-response latency (Tick)
system.comm_monitor.writeLatencyHist::32768-34815            0      0.00%    100.00% # Write request-response latency (Tick)
system.comm_monitor.writeLatencyHist::34816-36863            0      0.00%    100.00% # Write request-response latency (Tick)
system.comm_monitor.writeLatencyHist::36864-38911            0      0.00%    100.00% # Write request-response latency (Tick)
system.comm_monitor.writeLatencyHist::38912-40959            0      0.00%    100.00% # Write request-response latency (Tick)
system.comm_monitor.writeLatencyHist::total         8388                       # Write request-response latency (Tick)
system.comm_monitor.ittReadRead::samples        12094                       # Read-to-read inter transaction time (Tick)
system.comm_monitor.ittReadRead::mean    82676.699190                       # Read-to-read inter transaction time (Tick)
system.comm_monitor.ittReadRead::stdev   54327.715709                       # Read-to-read inter transaction time (Tick)
system.comm_monitor.ittReadRead::underflows            0      0.00%      0.00% # Read-to-read inter transaction time (Tick)
system.comm_monitor.ittReadRead::1-5000             0      0.00%      0.00% # Read-to-read inter transaction time (Tick)
system.comm_monitor.ittReadRead::5001-10000            0      0.00%      0.00% # Read-to-read inter transaction time (Tick)
system.comm_monitor.ittReadRead::10001-15000            0      0.00%      0.00% # Read-to-read inter transaction time (Tick)
system.comm_monitor.ittReadRead::15001-20000            0      0.00%      0.00% # Read-to-read inter transaction time (Tick)
system.comm_monitor.ittReadRead::20001-25000            0      0.00%      0.00% # Read-to-read inter transaction time (Tick)
system.comm_monitor.ittReadRead::25001-30000            0      0.00%      0.00% # Read-to-read inter transaction time (Tick)
system.comm_monitor.ittReadRead::30001-35000            0      0.00%      0.00% # Read-to-read inter transaction time (Tick)
system.comm_monitor.ittReadRead::35001-40000            0      0.00%      0.00% # Read-to-read inter transaction time (Tick)
system.comm_monitor.ittReadRead::40001-45000            0      0.00%      0.00% # Read-to-read inter transaction time (Tick)
system.comm_monitor.ittReadRead::45001-50000         5644     46.67%     46.67% # Read-to-read inter transaction time (Tick)
system.comm_monitor.ittReadRead::50001-55000            3      0.02%     46.69% # Read-to-read inter transaction time (Tick)
system.comm_monitor.ittReadRead::55001-60000            0      0.00%     46.69% # Read-to-read inter transaction time (Tick)
system.comm_monitor.ittReadRead::60001-65000          404      3.34%     50.03% # Read-to-read inter transaction time (Tick)
system.comm_monitor.ittReadRead::65001-70000            5      0.04%     50.07% # Read-to-read inter transaction time (Tick)
system.comm_monitor.ittReadRead::70001-75000         2345     19.39%     69.46% # Read-to-read inter transaction time (Tick)
system.comm_monitor.ittReadRead::75001-80000            3      0.02%     69.49% # Read-to-read inter transaction time (Tick)
system.comm_monitor.ittReadRead::80001-85000            6      0.05%     69.54% # Read-to-read inter transaction time (Tick)
system.comm_monitor.ittReadRead::85001-90000          169      1.40%     70.94% # Read-to-read inter transaction time (Tick)
system.comm_monitor.ittReadRead::90001-95000           33      0.27%     71.21% # Read-to-read inter transaction time (Tick)
system.comm_monitor.ittReadRead::95001-100000         1001      8.28%     79.49% # Read-to-read inter transaction time (Tick)
system.comm_monitor.ittReadRead::overflows         2481     20.51%    100.00% # Read-to-read inter transaction time (Tick)
system.comm_monitor.ittReadRead::min_value        49000                       # Read-to-read inter transaction time (Tick)
system.comm_monitor.ittReadRead::max_value       607000                       # Read-to-read inter transaction time (Tick)
system.comm_monitor.ittReadRead::total          12094                       # Read-to-read inter transaction time (Tick)
system.comm_monitor.ittWriteWrite::samples        28358                       # Write-to-write inter transaction time (Tick)
system.comm_monitor.ittWriteWrite::mean  35263.805628                       # Write-to-write inter transaction time (Tick)
system.comm_monitor.ittWriteWrite::stdev 43832.775977                       # Write-to-write inter transaction time (Tick)
system.comm_monitor.ittWriteWrite::underflows            0      0.00%      0.00% # Write-to-write inter transaction time (Tick)
system.comm_monitor.ittWriteWrite::1-5000         8186     28.87%     28.87% # Write-to-write inter transaction time (Tick)
system.comm_monitor.ittWriteWrite::5001-10000            0      0.00%     28.87% # Write-to-write inter transaction time (Tick)
system.comm_monitor.ittWriteWrite::10001-15000            0      0.00%     28.87% # Write-to-write inter transaction time (Tick)
system.comm_monitor.ittWriteWrite::15001-20000            0      0.00%     28.87% # Write-to-write inter transaction time (Tick)
system.comm_monitor.ittWriteWrite::20001-25000         8266     29.15%     58.02% # Write-to-write inter transaction time (Tick)
system.comm_monitor.ittWriteWrite::25001-30000            0      0.00%     58.02% # Write-to-write inter transaction time (Tick)
system.comm_monitor.ittWriteWrite::30001-35000            0      0.00%     58.02% # Write-to-write inter transaction time (Tick)
system.comm_monitor.ittWriteWrite::35001-40000            0      0.00%     58.02% # Write-to-write inter transaction time (Tick)
system.comm_monitor.ittWriteWrite::40001-45000            0      0.00%     58.02% # Write-to-write inter transaction time (Tick)
system.comm_monitor.ittWriteWrite::45001-50000         9361     33.01%     91.03% # Write-to-write inter transaction time (Tick)
system.comm_monitor.ittWriteWrite::50001-55000            3      0.01%     91.04% # Write-to-write inter transaction time (Tick)
system.comm_monitor.ittWriteWrite::55001-60000            0      0.00%     91.04% # Write-to-write inter transaction time (Tick)
system.comm_monitor.ittWriteWrite::60001-65000          662      2.33%     93.37% # Write-to-write inter transaction time (Tick)
system.comm_monitor.ittWriteWrite::65001-70000            6      0.02%     93.39% # Write-to-write inter transaction time (Tick)
system.comm_monitor.ittWriteWrite::70001-75000           57      0.20%     93.59% # Write-to-write inter transaction time (Tick)
system.comm_monitor.ittWriteWrite::75001-80000            6      0.02%     93.61% # Write-to-write inter transaction time (Tick)
system.comm_monitor.ittWriteWrite::80001-85000            7      0.02%     93.64% # Write-to-write inter transaction time (Tick)
system.comm_monitor.ittWriteWrite::85001-90000           15      0.05%     93.69% # Write-to-write inter transaction time (Tick)
system.comm_monitor.ittWriteWrite::90001-95000           18      0.06%     93.75% # Write-to-write inter transaction time (Tick)
system.comm_monitor.ittWriteWrite::95001-100000           41      0.14%     93.90% # Write-to-write inter transaction time (Tick)
system.comm_monitor.ittWriteWrite::overflows         1730      6.10%    100.00% # Write-to-write inter transaction time (Tick)
system.comm_monitor.ittWriteWrite::min_value         2000                       # Write-to-write inter transaction time (Tick)
system.comm_monitor.ittWriteWrite::max_value       673000                       # Write-to-write inter transaction time (Tick)
system.comm_monitor.ittWriteWrite::total        28358                       # Write-to-write inter transaction time (Tick)
system.comm_monitor.ittReqReq::samples          40453                       # Request-to-request inter transaction time (Tick)
system.comm_monitor.ittReqReq::mean      24721.899488                       # Request-to-request inter transaction time (Tick)
system.comm_monitor.ittReqReq::stdev     37936.946890                       # Request-to-request inter transaction time (Tick)
system.comm_monitor.ittReqReq::underflows            0      0.00%      0.00% # Request-to-request inter transaction time (Tick)
system.comm_monitor.ittReqReq::1-5000           19970     49.37%     49.37% # Request-to-request inter transaction time (Tick)
system.comm_monitor.ittReqReq::5001-10000            0      0.00%     49.37% # Request-to-request inter transaction time (Tick)
system.comm_monitor.ittReqReq::10001-15000            0      0.00%     49.37% # Request-to-request inter transaction time (Tick)
system.comm_monitor.ittReqReq::15001-20000            0      0.00%     49.37% # Request-to-request inter transaction time (Tick)
system.comm_monitor.ittReqReq::20001-25000         8388     20.74%     70.10% # Request-to-request inter transaction time (Tick)
system.comm_monitor.ittReqReq::25001-30000            0      0.00%     70.10% # Request-to-request inter transaction time (Tick)
system.comm_monitor.ittReqReq::30001-35000            0      0.00%     70.10% # Request-to-request inter transaction time (Tick)
system.comm_monitor.ittReqReq::35001-40000            0      0.00%     70.10% # Request-to-request inter transaction time (Tick)
system.comm_monitor.ittReqReq::40001-45000            0      0.00%     70.10% # Request-to-request inter transaction time (Tick)
system.comm_monitor.ittReqReq::45001-50000         9645     23.84%     93.94% # Request-to-request inter transaction time (Tick)
system.comm_monitor.ittReqReq::50001-55000            0      0.00%     93.94% # Request-to-request inter transaction time (Tick)
system.comm_monitor.ittReqReq::55001-60000            0      0.00%     93.94% # Request-to-request inter transaction time (Tick)
system.comm_monitor.ittReqReq::60001-65000          680      1.68%     95.62% # Request-to-request inter transaction time (Tick)
system.comm_monitor.ittReqReq::65001-70000            8      0.02%     95.64% # Request-to-request inter transaction time (Tick)
system.comm_monitor.ittReqReq::70001-75000            6      0.01%     95.66% # Request-to-request inter transaction time (Tick)
system.comm_monitor.ittReqReq::75001-80000            6      0.01%     95.67% # Request-to-request inter transaction time (Tick)
system.comm_monitor.ittReqReq::80001-85000            9      0.02%     95.70% # Request-to-request inter transaction time (Tick)
system.comm_monitor.ittReqReq::85001-90000           18      0.04%     95.74% # Request-to-request inter transaction time (Tick)
system.comm_monitor.ittReqReq::90001-95000           22      0.05%     95.80% # Request-to-request inter transaction time (Tick)
system.comm_monitor.ittReqReq::95001-100000           79      0.20%     95.99% # Request-to-request inter transaction time (Tick)
system.comm_monitor.ittReqReq::overflows         1622      4.01%    100.00% # Request-to-request inter transaction time (Tick)
system.comm_monitor.ittReqReq::min_value         2000                       # Request-to-request inter transaction time (Tick)
system.comm_monitor.ittReqReq::max_value       578000                       # Request-to-request inter transaction time (Tick)
system.comm_monitor.ittReqReq::total            40453                       # Request-to-request inter transaction time (Tick)
system.comm_monitor.outstandingReadsHist::samples            1                       # Outstanding read transactions (Count)
system.comm_monitor.outstandingReadsHist::mean            1                       # Outstanding read transactions (Count)
system.comm_monitor.outstandingReadsHist::gmean            1                       # Outstanding read transactions (Count)
system.comm_monitor.outstandingReadsHist::stdev          nan                       # Outstanding read transactions (Count)
system.comm_monitor.outstandingReadsHist::0            0      0.00%      0.00% # Outstanding read transactions (Count)
system.comm_monitor.outstandingReadsHist::1            1    100.00%    100.00% # Outstanding read transactions (Count)
system.comm_monitor.outstandingReadsHist::2            0      0.00%    100.00% # Outstanding read transactions (Count)
system.comm_monitor.outstandingReadsHist::3            0      0.00%    100.00% # Outstanding read transactions (Count)
system.comm_monitor.outstandingReadsHist::4            0      0.00%    100.00% # Outstanding read transactions (Count)
system.comm_monitor.outstandingReadsHist::5            0      0.00%    100.00% # Outstanding read transactions (Count)
system.comm_monitor.outstandingReadsHist::6            0      0.00%    100.00% # Outstanding read transactions (Count)
system.comm_monitor.outstandingReadsHist::7            0      0.00%    100.00% # Outstanding read transactions (Count)
system.comm_monitor.outstandingReadsHist::8            0      0.00%    100.00% # Outstanding read transactions (Count)
system.comm_monitor.outstandingReadsHist::9            0      0.00%    100.00% # Outstanding read transactions (Count)
system.comm_monitor.outstandingReadsHist::10            0      0.00%    100.00% # Outstanding read transactions (Count)
system.comm_monitor.outstandingReadsHist::11            0      0.00%    100.00% # Outstanding read transactions (Count)
system.comm_monitor.outstandingReadsHist::12            0      0.00%    100.00% # Outstanding read transactions (Count)
system.comm_monitor.outstandingReadsHist::13            0      0.00%    100.00% # Outstanding read transactions (Count)
system.comm_monitor.outstandingReadsHist::14            0      0.00%    100.00% # Outstanding read transactions (Count)
system.comm_monitor.outstandingReadsHist::15            0      0.00%    100.00% # Outstanding read transactions (Count)
system.comm_monitor.outstandingReadsHist::16            0      0.00%    100.00% # Outstanding read transactions (Count)
system.comm_monitor.outstandingReadsHist::17            0      0.00%    100.00% # Outstanding read transactions (Count)
system.comm_monitor.outstandingReadsHist::18            0      0.00%    100.00% # Outstanding read transactions (Count)
system.comm_monitor.outstandingReadsHist::19            0      0.00%    100.00% # Outstanding read transactions (Count)
system.comm_monitor.outstandingReadsHist::total            1                       # Outstanding read transactions (Count)
system.comm_monitor.outstandingWritesHist::samples            1                       # Outstanding write transactions (Count)
system.comm_monitor.outstandingWritesHist::mean            0                       # Outstanding write transactions (Count)
system.comm_monitor.outstandingWritesHist::gmean            0                       # Outstanding write transactions (Count)
system.comm_monitor.outstandingWritesHist::stdev          nan                       # Outstanding write transactions (Count)
system.comm_monitor.outstandingWritesHist::0            1    100.00%    100.00% # Outstanding write transactions (Count)
system.comm_monitor.outstandingWritesHist::1            0      0.00%    100.00% # Outstanding write transactions (Count)
system.comm_monitor.outstandingWritesHist::2            0      0.00%    100.00% # Outstanding write transactions (Count)
system.comm_monitor.outstandingWritesHist::3            0      0.00%    100.00% # Outstanding write transactions (Count)
system.comm_monitor.outstandingWritesHist::4            0      0.00%    100.00% # Outstanding write transactions (Count)
system.comm_monitor.outstandingWritesHist::5            0      0.00%    100.00% # Outstanding write transactions (Count)
system.comm_monitor.outstandingWritesHist::6            0      0.00%    100.00% # Outstanding write transactions (Count)
system.comm_monitor.outstandingWritesHist::7            0      0.00%    100.00% # Outstanding write transactions (Count)
system.comm_monitor.outstandingWritesHist::8            0      0.00%    100.00% # Outstanding write transactions (Count)
system.comm_monitor.outstandingWritesHist::9            0      0.00%    100.00% # Outstanding write transactions (Count)
system.comm_monitor.outstandingWritesHist::10            0      0.00%    100.00% # Outstanding write transactions (Count)
system.comm_monitor.outstandingWritesHist::11            0      0.00%    100.00% # Outstanding write transactions (Count)
system.comm_monitor.outstandingWritesHist::12            0      0.00%    100.00% # Outstanding write transactions (Count)
system.comm_monitor.outstandingWritesHist::13            0      0.00%    100.00% # Outstanding write transactions (Count)
system.comm_monitor.outstandingWritesHist::14            0      0.00%    100.00% # Outstanding write transactions (Count)
system.comm_monitor.outstandingWritesHist::15            0      0.00%    100.00% # Outstanding write transactions (Count)
system.comm_monitor.outstandingWritesHist::16            0      0.00%    100.00% # Outstanding write transactions (Count)
system.comm_monitor.outstandingWritesHist::17            0      0.00%    100.00% # Outstanding write transactions (Count)
system.comm_monitor.outstandingWritesHist::18            0      0.00%    100.00% # Outstanding write transactions (Count)
system.comm_monitor.outstandingWritesHist::19            0      0.00%    100.00% # Outstanding write transactions (Count)
system.comm_monitor.outstandingWritesHist::total            1                       # Outstanding write transactions (Count)
system.comm_monitor.readTransHist::samples            1                       # Histogram of read transactions per sample period (Count)
system.comm_monitor.readTransHist::mean         12095                       # Histogram of read transactions per sample period (Count)
system.comm_monitor.readTransHist::gmean 12095.000000                       # Histogram of read transactions per sample period (Count)
system.comm_monitor.readTransHist::stdev          nan                       # Histogram of read transactions per sample period (Count)
system.comm_monitor.readTransHist::0-1023            0      0.00%      0.00% # Histogram of read transactions per sample period (Count)
system.comm_monitor.readTransHist::1024-2047            0      0.00%      0.00% # Histogram of read transactions per sample period (Count)
system.comm_monitor.readTransHist::2048-3071            0      0.00%      0.00% # Histogram of read transactions per sample period (Count)
system.comm_monitor.readTransHist::3072-4095            0      0.00%      0.00% # Histogram of read transactions per sample period (Count)
system.comm_monitor.readTransHist::4096-5119            0      0.00%      0.00% # Histogram of read transactions per sample period (Count)
system.comm_monitor.readTransHist::5120-6143            0      0.00%      0.00% # Histogram of read transactions per sample period (Count)
system.comm_monitor.readTransHist::6144-7167            0      0.00%      0.00% # Histogram of read transactions per sample period (Count)
system.comm_monitor.readTransHist::7168-8191            0      0.00%      0.00% # Histogram of read transactions per sample period (Count)
system.comm_monitor.readTransHist::8192-9215            0      0.00%      0.00% # Histogram of read transactions per sample period (Count)
system.comm_monitor.readTransHist::9216-10239            0      0.00%      0.00% # Histogram of read transactions per sample period (Count)
system.comm_monitor.readTransHist::10240-11263            0      0.00%      0.00% # Histogram of read transactions per sample period (Count)
system.comm_monitor.readTransHist::11264-12287            1    100.00%    100.00% # Histogram of read transactions per sample period (Count)
system.comm_monitor.readTransHist::12288-13311            0      0.00%    100.00% # Histogram of read transactions per sample period (Count)
system.comm_monitor.readTransHist::13312-14335            0      0.00%    100.00% # Histogram of read transactions per sample period (Count)
system.comm_monitor.readTransHist::14336-15359            0      0.00%    100.00% # Histogram of read transactions per sample period (Count)
system.comm_monitor.readTransHist::15360-16383            0      0.00%    100.00% # Histogram of read transactions per sample period (Count)
system.comm_monitor.readTransHist::16384-17407            0      0.00%    100.00% # Histogram of read transactions per sample period (Count)
system.comm_monitor.readTransHist::17408-18431            0      0.00%    100.00% # Histogram of read transactions per sample period (Count)
system.comm_monitor.readTransHist::18432-19455            0      0.00%    100.00% # Histogram of read transactions per sample period (Count)
system.comm_monitor.readTransHist::19456-20479            0      0.00%    100.00% # Histogram of read transactions per sample period (Count)
system.comm_monitor.readTransHist::total            1                       # Histogram of read transactions per sample period (Count)
system.comm_monitor.writeTransHist::samples            1                       # Histogram of write transactions per sample period (Count)
system.comm_monitor.writeTransHist::mean        28358                       # Histogram of write transactions per sample period (Count)
system.comm_monitor.writeTransHist::gmean 28358.000000                       # Histogram of write transactions per sample period (Count)
system.comm_monitor.writeTransHist::stdev          nan                       # Histogram of write transactions per sample period (Count)
system.comm_monitor.writeTransHist::0-2047            0      0.00%      0.00% # Histogram of write transactions per sample period (Count)
system.comm_monitor.writeTransHist::2048-4095            0      0.00%      0.00% # Histogram of write transactions per sample period (Count)
system.comm_monitor.writeTransHist::4096-6143            0      0.00%      0.00% # Histogram of write transactions per sample period (Count)
system.comm_monitor.writeTransHist::6144-8191            0      0.00%      0.00% # Histogram of write transactions per sample period (Count)
system.comm_monitor.writeTransHist::8192-10239            0      0.00%      0.00% # Histogram of write transactions per sample period (Count)
system.comm_monitor.writeTransHist::10240-12287            0      0.00%      0.00% # Histogram of write transactions per sample period (Count)
system.comm_monitor.writeTransHist::12288-14335            0      0.00%      0.00% # Histogram of write transactions per sample period (Count)
system.comm_monitor.writeTransHist::14336-16383            0      0.00%      0.00% # Histogram of write transactions per sample period (Count)
system.comm_monitor.writeTransHist::16384-18431            0      0.00%      0.00% # Histogram of write transactions per sample period (Count)
system.comm_monitor.writeTransHist::18432-20479            0      0.00%      0.00% # Histogram of write transactions per sample period (Count)
system.comm_monitor.writeTransHist::20480-22527            0      0.00%      0.00% # Histogram of write transactions per sample period (Count)
system.comm_monitor.writeTransHist::22528-24575            0      0.00%      0.00% # Histogram of write transactions per sample period (Count)
system.comm_monitor.writeTransHist::24576-26623            0      0.00%      0.00% # Histogram of write transactions per sample period (Count)
system.comm_monitor.writeTransHist::26624-28671            1    100.00%    100.00% # Histogram of write transactions per sample period (Count)
system.comm_monitor.writeTransHist::28672-30719            0      0.00%    100.00% # Histogram of write transactions per sample period (Count)
system.comm_monitor.writeTransHist::30720-32767            0      0.00%    100.00% # Histogram of write transactions per sample period (Count)
system.comm_monitor.writeTransHist::32768-34815            0      0.00%    100.00% # Histogram of write transactions per sample period (Count)
system.comm_monitor.writeTransHist::34816-36863            0      0.00%    100.00% # Histogram of write transactions per sample period (Count)
system.comm_monitor.writeTransHist::36864-38911            0      0.00%    100.00% # Histogram of write transactions per sample period (Count)
system.comm_monitor.writeTransHist::38912-40959            0      0.00%    100.00% # Histogram of write transactions per sample period (Count)
system.comm_monitor.writeTransHist::total            1                       # Histogram of write transactions per sample period (Count)
system.l1cache.hits                                 0                       # Number of hits (Count)
system.l1cache.misses                           20483                       # Number of misses (Count)
system.l1cache.missLatency::samples             20483                       # Ticks for misses to the cache (Tick)
system.l1cache.missLatency::mean         47824.683884                       # Ticks for misses to the cache (Tick)
system.l1cache.missLatency::gmean        39096.539989                       # Ticks for misses to the cache (Tick)
system.l1cache.missLatency::stdev        42997.802575                       # Ticks for misses to the cache (Tick)
system.l1cache.missLatency::0-65535             18712     91.35%     91.35% # Ticks for misses to the cache (Tick)
system.l1cache.missLatency::65536-131071          783      3.82%     95.18% # Ticks for misses to the cache (Tick)
system.l1cache.missLatency::131072-196607          795      3.88%     99.06% # Ticks for misses to the cache (Tick)
system.l1cache.missLatency::196608-262143           62      0.30%     99.36% # Ticks for misses to the cache (Tick)
system.l1cache.missLatency::262144-327679            6      0.03%     99.39% # Ticks for misses to the cache (Tick)
system.l1cache.missLatency::327680-393215           52      0.25%     99.64% # Ticks for misses to the cache (Tick)
system.l1cache.missLatency::393216-458751           61      0.30%     99.94% # Ticks for misses to the cache (Tick)
system.l1cache.missLatency::458752-524287            4      0.02%     99.96% # Ticks for misses to the cache (Tick)
system.l1cache.missLatency::524288-589823            8      0.04%    100.00% # Ticks for misses to the cache (Tick)
system.l1cache.missLatency::589824-655359            0      0.00%    100.00% # Ticks for misses to the cache (Tick)
system.l1cache.missLatency::655360-720895            0      0.00%    100.00% # Ticks for misses to the cache (Tick)
system.l1cache.missLatency::720896-786431            0      0.00%    100.00% # Ticks for misses to the cache (Tick)
system.l1cache.missLatency::786432-851967            0      0.00%    100.00% # Ticks for misses to the cache (Tick)
system.l1cache.missLatency::851968-917503            0      0.00%    100.00% # Ticks for misses to the cache (Tick)
system.l1cache.missLatency::917504-983039            0      0.00%    100.00% # Ticks for misses to the cache (Tick)
system.l1cache.missLatency::983040-1.04858e+06            0      0.00%    100.00% # Ticks for misses to the cache (Tick)
system.l1cache.missLatency::total               20483                       # Ticks for misses to the cache (Tick)
system.l1cache.hitRatio                             0                       # The ratio of hits to the total accesses to the cache (Ratio)
system.l1cache.power_state.pwrStateResidencyTicks::UNDEFINED   1000088000                       # Cumulative time (in ticks) in various power states (Tick)
system.mem_ctrl.avgPriority_writebacks::samples     19673.00                       # Average QoS priority value for accepted requests (Count)
system.mem_ctrl.avgPriority_tgen::samples     20483.00                       # Average QoS priority value for accepted requests (Count)
system.mem_ctrl.priorityMinLatency       0.000000017492                       # per QoS priority minimum request to response latency (Second)
system.mem_ctrl.priorityMaxLatency       0.000008779652                       # per QoS priority maximum request to response latency (Second)
system.mem_ctrl.numReadWriteTurnArounds          1670                       # Number of turnarounds from READ to WRITE (Count)
system.mem_ctrl.numWriteReadTurnArounds          1670                       # Number of turnarounds from WRITE to READ (Count)
system.mem_ctrl.numStayReadState                48455                       # Number of times bus staying in READ state (Count)
system.mem_ctrl.numStayWriteState               26406                       # Number of times bus staying in WRITE state (Count)
system.mem_ctrl.readReqs                        12095                       # Number of read requests accepted (Count)
system.mem_ctrl.writeReqs                       28359                       # Number of write requests accepted (Count)
system.mem_ctrl.readBursts                      12095                       # Number of controller read bursts, including those serviced by the write queue (Count)
system.mem_ctrl.writeBursts                     28359                       # Number of controller write bursts, including those merged in the write queue (Count)
system.mem_ctrl.servicedByWrQ                       0                       # Number of controller read bursts serviced by the write queue (Count)
system.mem_ctrl.mergedWrBursts                    298                       # Number of controller write bursts merged with an existing one (Count)
system.mem_ctrl.neitherReadNorWriteReqs             0                       # Number of requests that are neither read nor write (Count)
system.mem_ctrl.avgRdQLen                        1.00                       # Average read queue length when enqueuing ((Count/Tick))
system.mem_ctrl.avgWrQLen                       26.02                       # Average write queue length when enqueuing ((Count/Tick))
system.mem_ctrl.numRdRetry                          0                       # Number of times read queue was full causing retry (Count)
system.mem_ctrl.numWrRetry                          0                       # Number of times write queue was full causing retry (Count)
system.mem_ctrl.readPktSize::0                      0                       # Read request sizes (log2) (Count)
system.mem_ctrl.readPktSize::1                      0                       # Read request sizes (log2) (Count)
system.mem_ctrl.readPktSize::2                      0                       # Read request sizes (log2) (Count)
system.mem_ctrl.readPktSize::3                      0                       # Read request sizes (log2) (Count)
system.mem_ctrl.readPktSize::4                      0                       # Read request sizes (log2) (Count)
system.mem_ctrl.readPktSize::5                      0                       # Read request sizes (log2) (Count)
system.mem_ctrl.readPktSize::6                  12095                       # Read request sizes (log2) (Count)
system.mem_ctrl.writePktSize::0                     0                       # Write request sizes (log2) (Count)
system.mem_ctrl.writePktSize::1                     0                       # Write request sizes (log2) (Count)
system.mem_ctrl.writePktSize::2                     0                       # Write request sizes (log2) (Count)
system.mem_ctrl.writePktSize::3                     0                       # Write request sizes (log2) (Count)
system.mem_ctrl.writePktSize::4                     0                       # Write request sizes (log2) (Count)
system.mem_ctrl.writePktSize::5                     0                       # Write request sizes (log2) (Count)
system.mem_ctrl.writePktSize::6                 28359                       # Write request sizes (log2) (Count)
system.mem_ctrl.rdQLenPdf::0                    12095                       # What read queue length does an incoming req see (Count)
system.mem_ctrl.rdQLenPdf::1                        0                       # What read queue length does an incoming req see (Count)
system.mem_ctrl.rdQLenPdf::2                        0                       # What read queue length does an incoming req see (Count)
system.mem_ctrl.rdQLenPdf::3                        0                       # What read queue length does an incoming req see (Count)
system.mem_ctrl.rdQLenPdf::4                        0                       # What read queue length does an incoming req see (Count)
system.mem_ctrl.rdQLenPdf::5                        0                       # What read queue length does an incoming req see (Count)
system.mem_ctrl.rdQLenPdf::6                        0                       # What read queue length does an incoming req see (Count)
system.mem_ctrl.rdQLenPdf::7                        0                       # What read queue length does an incoming req see (Count)
system.mem_ctrl.rdQLenPdf::8                        0                       # What read queue length does an incoming req see (Count)
system.mem_ctrl.rdQLenPdf::9                        0                       # What read queue length does an incoming req see (Count)
system.mem_ctrl.rdQLenPdf::10                       0                       # What read queue length does an incoming req see (Count)
system.mem_ctrl.rdQLenPdf::11                       0                       # What read queue length does an incoming req see (Count)
system.mem_ctrl.rdQLenPdf::12                       0                       # What read queue length does an incoming req see (Count)
system.mem_ctrl.rdQLenPdf::13                       0                       # What read queue length does an incoming req see (Count)
system.mem_ctrl.rdQLenPdf::14                       0                       # What read queue length does an incoming req see (Count)
system.mem_ctrl.rdQLenPdf::15                       0                       # What read queue length does an incoming req see (Count)
system.mem_ctrl.rdQLenPdf::16                       0                       # What read queue length does an incoming req see (Count)
system.mem_ctrl.rdQLenPdf::17                       0                       # What read queue length does an incoming req see (Count)
system.mem_ctrl.rdQLenPdf::18                       0                       # What read queue length does an incoming req see (Count)
system.mem_ctrl.rdQLenPdf::19                       0                       # What read queue length does an incoming req see (Count)
system.mem_ctrl.rdQLenPdf::20                       0                       # What read queue length does an incoming req see (Count)
system.mem_ctrl.rdQLenPdf::21                       0                       # What read queue length does an incoming req see (Count)
system.mem_ctrl.rdQLenPdf::22                       0                       # What read queue length does an incoming req see (Count)
system.mem_ctrl.rdQLenPdf::23                       0                       # What read queue length does an incoming req see (Count)
system.mem_ctrl.rdQLenPdf::24                       0                       # What read queue length does an incoming req see (Count)
system.mem_ctrl.rdQLenPdf::25                       0                       # What read queue length does an incoming req see (Count)
system.mem_ctrl.rdQLenPdf::26                       0                       # What read queue length does an incoming req see (Count)
system.mem_ctrl.rdQLenPdf::27                       0                       # What read queue length does an incoming req see (Count)
system.mem_ctrl.rdQLenPdf::28                       0                       # What read queue length does an incoming req see (Count)
system.mem_ctrl.rdQLenPdf::29                       0                       # What read queue length does an incoming req see (Count)
system.mem_ctrl.rdQLenPdf::30                       0                       # What read queue length does an incoming req see (Count)
system.mem_ctrl.rdQLenPdf::31                       0                       # What read queue length does an incoming req see (Count)
system.mem_ctrl.wrQLenPdf::0                        1                       # What write queue length does an incoming req see (Count)
system.mem_ctrl.wrQLenPdf::1                        1                       # What write queue length does an incoming req see (Count)
system.mem_ctrl.wrQLenPdf::2                        1                       # What write queue length does an incoming req see (Count)
system.mem_ctrl.wrQLenPdf::3                        1                       # What write queue length does an incoming req see (Count)
system.mem_ctrl.wrQLenPdf::4                        1                       # What write queue length does an incoming req see (Count)
system.mem_ctrl.wrQLenPdf::5                        1                       # What write queue length does an incoming req see (Count)
system.mem_ctrl.wrQLenPdf::6                        1                       # What write queue length does an incoming req see (Count)
system.mem_ctrl.wrQLenPdf::7                        1                       # What write queue length does an incoming req see (Count)
system.mem_ctrl.wrQLenPdf::8                        1                       # What write queue length does an incoming req see (Count)
system.mem_ctrl.wrQLenPdf::9                        1                       # What write queue length does an incoming req see (Count)
system.mem_ctrl.wrQLenPdf::10                       1                       # What write queue length does an incoming req see (Count)
system.mem_ctrl.wrQLenPdf::11                       1                       # What write queue length does an incoming req see (Count)
system.mem_ctrl.wrQLenPdf::12                       1                       # What write queue length does an incoming req see (Count)
system.mem_ctrl.wrQLenPdf::13                       1                       # What write queue length does an incoming req see (Count)
system.mem_ctrl.wrQLenPdf::14                       1                       # What write queue length does an incoming req see (Count)
system.mem_ctrl.wrQLenPdf::15                     117                       # What write queue length does an incoming req see (Count)
system.mem_ctrl.wrQLenPdf::16                     219                       # What write queue length does an incoming req see (Count)
system.mem_ctrl.wrQLenPdf::17                     964                       # What write queue length does an incoming req see (Count)
system.mem_ctrl.wrQLenPdf::18                    1283                       # What write queue length does an incoming req see (Count)
system.mem_ctrl.wrQLenPdf::19                    1691                       # What write queue length does an incoming req see (Count)
system.mem_ctrl.wrQLenPdf::20                    1858                       # What write queue length does an incoming req see (Count)
system.mem_ctrl.wrQLenPdf::21                    1919                       # What write queue length does an incoming req see (Count)
system.mem_ctrl.wrQLenPdf::22                    1897                       # What write queue length does an incoming req see (Count)
system.mem_ctrl.wrQLenPdf::23                    1891                       # What write queue length does an incoming req see (Count)
system.mem_ctrl.wrQLenPdf::24                    1935                       # What write queue length does an incoming req see (Count)
system.mem_ctrl.wrQLenPdf::25                    1926                       # What write queue length does an incoming req see (Count)
system.mem_ctrl.wrQLenPdf::26                    1820                       # What write queue length does an incoming req see (Count)
system.mem_ctrl.wrQLenPdf::27                    1793                       # What write queue length does an incoming req see (Count)
system.mem_ctrl.wrQLenPdf::28                    1814                       # What write queue length does an incoming req see (Count)
system.mem_ctrl.wrQLenPdf::29                    1772                       # What write queue length does an incoming req see (Count)
system.mem_ctrl.wrQLenPdf::30                    1734                       # What write queue length does an incoming req see (Count)
system.mem_ctrl.wrQLenPdf::31                    1705                       # What write queue length does an incoming req see (Count)
system.mem_ctrl.wrQLenPdf::32                    1680                       # What write queue length does an incoming req see (Count)
system.mem_ctrl.wrQLenPdf::33                      11                       # What write queue length does an incoming req see (Count)
system.mem_ctrl.wrQLenPdf::34                       7                       # What write queue length does an incoming req see (Count)
system.mem_ctrl.wrQLenPdf::35                       4                       # What write queue length does an incoming req see (Count)
system.mem_ctrl.wrQLenPdf::36                       3                       # What write queue length does an incoming req see (Count)
system.mem_ctrl.wrQLenPdf::37                       2                       # What write queue length does an incoming req see (Count)
system.mem_ctrl.wrQLenPdf::38                       1                       # What write queue length does an incoming req see (Count)
system.mem_ctrl.wrQLenPdf::39                       0                       # What write queue length does an incoming req see (Count)
system.mem_ctrl.wrQLenPdf::40                       0                       # What write queue length does an incoming req see (Count)
system.mem_ctrl.wrQLenPdf::41                       0                       # What write queue length does an incoming req see (Count)
system.mem_ctrl.wrQLenPdf::42                       0                       # What write queue length does an incoming req see (Count)
system.mem_ctrl.wrQLenPdf::43                       0                       # What write queue length does an incoming req see (Count)
system.mem_ctrl.wrQLenPdf::44                       0                       # What write queue length does an incoming req see (Count)
system.mem_ctrl.wrQLenPdf::45                       0                       # What write queue length does an incoming req see (Count)
system.mem_ctrl.wrQLenPdf::46                       0                       # What write queue length does an incoming req see (Count)
system.mem_ctrl.wrQLenPdf::47                       0                       # What write queue length does an incoming req see (Count)
system.mem_ctrl.wrQLenPdf::48                       0                       # What write queue length does an incoming req see (Count)
system.mem_ctrl.wrQLenPdf::49                       0                       # What write queue length does an incoming req see (Count)
system.mem_ctrl.wrQLenPdf::50                       0                       # What write queue length does an incoming req see (Count)
system.mem_ctrl.wrQLenPdf::51                       0                       # What write queue length does an incoming req see (Count)
system.mem_ctrl.wrQLenPdf::52                       0                       # What write queue length does an incoming req see (Count)
system.mem_ctrl.wrQLenPdf::53                       0                       # What write queue length does an incoming req see (Count)
system.mem_ctrl.wrQLenPdf::54                       0                       # What write queue length does an incoming req see (Count)
system.mem_ctrl.wrQLenPdf::55                       0                       # What write queue length does an incoming req see (Count)
system.mem_ctrl.wrQLenPdf::56                       0                       # What write queue length does an incoming req see (Count)
system.mem_ctrl.wrQLenPdf::57                       0                       # What write queue length does an incoming req see (Count)
system.mem_ctrl.wrQLenPdf::58                       0                       # What write queue length does an incoming req see (Count)
system.mem_ctrl.wrQLenPdf::59                       0                       # What write queue length does an incoming req see (Count)
system.mem_ctrl.wrQLenPdf::60                       0                       # What write queue length does an incoming req see (Count)
system.mem_ctrl.wrQLenPdf::61                       0                       # What write queue length does an incoming req see (Count)
system.mem_ctrl.wrQLenPdf::62                       0                       # What write queue length does an incoming req see (Count)
system.mem_ctrl.wrQLenPdf::63                       0                       # What write queue length does an incoming req see (Count)
system.mem_ctrl.rdPerTurnAround::samples         1670                       # Reads before turning the bus around for writes (Count)
system.mem_ctrl.rdPerTurnAround::mean        7.241916                       # Reads before turning the bus around for writes (Count)
system.mem_ctrl.rdPerTurnAround::gmean       6.760306                       # Reads before turning the bus around for writes (Count)
system.mem_ctrl.rdPerTurnAround::stdev       2.949979                       # Reads before turning the bus around for writes (Count)
system.mem_ctrl.rdPerTurnAround::0-1                4      0.24%      0.24% # Reads before turning the bus around for writes (Count)
system.mem_ctrl.rdPerTurnAround::2-3               76      4.55%      4.79% # Reads before turning the bus around for writes (Count)
system.mem_ctrl.rdPerTurnAround::4-5              329     19.70%     24.49% # Reads before turning the bus around for writes (Count)
system.mem_ctrl.rdPerTurnAround::6-7              529     31.68%     56.17% # Reads before turning the bus around for writes (Count)
system.mem_ctrl.rdPerTurnAround::8-9              468     28.02%     84.19% # Reads before turning the bus around for writes (Count)
system.mem_ctrl.rdPerTurnAround::10-11            196     11.74%     95.93% # Reads before turning the bus around for writes (Count)
system.mem_ctrl.rdPerTurnAround::12-13             53      3.17%     99.10% # Reads before turning the bus around for writes (Count)
system.mem_ctrl.rdPerTurnAround::14-15              5      0.30%     99.40% # Reads before turning the bus around for writes (Count)
system.mem_ctrl.rdPerTurnAround::16-17              1      0.06%     99.46% # Reads before turning the bus around for writes (Count)
system.mem_ctrl.rdPerTurnAround::18-19              1      0.06%     99.52% # Reads before turning the bus around for writes (Count)
system.mem_ctrl.rdPerTurnAround::20-21              1      0.06%     99.58% # Reads before turning the bus around for writes (Count)
system.mem_ctrl.rdPerTurnAround::22-23              1      0.06%     99.64% # Reads before turning the bus around for writes (Count)
system.mem_ctrl.rdPerTurnAround::28-29              1      0.06%     99.70% # Reads before turning the bus around for writes (Count)
system.mem_ctrl.rdPerTurnAround::30-31              2      0.12%     99.82% # Reads before turning the bus around for writes (Count)
system.mem_ctrl.rdPerTurnAround::36-37              1      0.06%     99.88% # Reads before turning the bus around for writes (Count)
system.mem_ctrl.rdPerTurnAround::40-41              1      0.06%     99.94% # Reads before turning the bus around for writes (Count)
system.mem_ctrl.rdPerTurnAround::50-51              1      0.06%    100.00% # Reads before turning the bus around for writes (Count)
system.mem_ctrl.rdPerTurnAround::total           1670                       # Reads before turning the bus around for writes (Count)
system.mem_ctrl.wrPerTurnAround::samples         1670                       # Writes before turning the bus around for reads (Count)
system.mem_ctrl.wrPerTurnAround::mean       16.792216                       # Writes before turning the bus around for reads (Count)
system.mem_ctrl.wrPerTurnAround::gmean      16.689773                       # Writes before turning the bus around for reads (Count)
system.mem_ctrl.wrPerTurnAround::stdev       2.057720                       # Writes before turning the bus around for reads (Count)
system.mem_ctrl.wrPerTurnAround::16              1370     82.04%     82.04% # Writes before turning the bus around for reads (Count)
system.mem_ctrl.wrPerTurnAround::17                47      2.81%     84.85% # Writes before turning the bus around for reads (Count)
system.mem_ctrl.wrPerTurnAround::18                37      2.22%     87.07% # Writes before turning the bus around for reads (Count)
system.mem_ctrl.wrPerTurnAround::19                29      1.74%     88.80% # Writes before turning the bus around for reads (Count)
system.mem_ctrl.wrPerTurnAround::20                63      3.77%     92.57% # Writes before turning the bus around for reads (Count)
system.mem_ctrl.wrPerTurnAround::21                31      1.86%     94.43% # Writes before turning the bus around for reads (Count)
system.mem_ctrl.wrPerTurnAround::22                38      2.28%     96.71% # Writes before turning the bus around for reads (Count)
system.mem_ctrl.wrPerTurnAround::23                27      1.62%     98.32% # Writes before turning the bus around for reads (Count)
system.mem_ctrl.wrPerTurnAround::24                 7      0.42%     98.74% # Writes before turning the bus around for reads (Count)
system.mem_ctrl.wrPerTurnAround::25                 4      0.24%     98.98% # Writes before turning the bus around for reads (Count)
system.mem_ctrl.wrPerTurnAround::26                 7      0.42%     99.40% # Writes before turning the bus around for reads (Count)
system.mem_ctrl.wrPerTurnAround::27                 2      0.12%     99.52% # Writes before turning the bus around for reads (Count)
system.mem_ctrl.wrPerTurnAround::28                 4      0.24%     99.76% # Writes before turning the bus around for reads (Count)
system.mem_ctrl.wrPerTurnAround::29                 2      0.12%     99.88% # Writes before turning the bus around for reads (Count)
system.mem_ctrl.wrPerTurnAround::30                 1      0.06%     99.94% # Writes before turning the bus around for reads (Count)
system.mem_ctrl.wrPerTurnAround::35                 1      0.06%    100.00% # Writes before turning the bus around for reads (Count)
system.mem_ctrl.wrPerTurnAround::total           1670                       # Writes before turning the bus around for reads (Count)
system.mem_ctrl.bytesReadWrQ                        0                       # Total number of bytes read from write queue (Byte)
system.mem_ctrl.bytesReadSys                   774080                       # Total read bytes from the system interface side (Byte)
system.mem_ctrl.bytesWrittenSys               1814976                       # Total written bytes from the system interface side (Byte)
system.mem_ctrl.avgRdBWSys               774011886.95394802                       # Average system read bandwidth in Byte/s ((Byte/Second))
system.mem_ctrl.avgWrBWSys               1814816296.16593719                       # Average system write bandwidth in Byte/s ((Byte/Second))
system.mem_ctrl.totGap                     1000075000                       # Total gap between requests (Tick)
system.mem_ctrl.avgGap                       24721.29                       # Average gap between requests ((Tick/Count))
system.mem_ctrl.requestorReadBytes::tgen       774080                       # Per-requestor bytes read from memory (Byte)
system.mem_ctrl.requestorWriteBytes::writebacks      1258368                       # Per-requestor bytes write to memory (Byte)
system.mem_ctrl.requestorWriteBytes::tgen       536384                       # Per-requestor bytes write to memory (Byte)
system.mem_ctrl.requestorReadRate::tgen  774011886.953948020935                       # Per-requestor bytes read from memory rate ((Byte/Second))
system.mem_ctrl.requestorWriteRate::writebacks 1258257273.359944105148                       # Per-requestor bytes write to memory rate ((Byte/Second))
system.mem_ctrl.requestorWriteRate::tgen 536336802.361392140388                       # Per-requestor bytes write to memory rate ((Byte/Second))
system.mem_ctrl.requestorReadAccesses::tgen        12095                       # Per-requestor read serviced memory accesses (Count)
system.mem_ctrl.requestorWriteAccesses::writebacks        19971                       # Per-requestor write serviced memory accesses (Count)
system.mem_ctrl.requestorWriteAccesses::tgen         8388                       # Per-requestor write serviced memory accesses (Count)
system.mem_ctrl.requestorReadTotalLat::tgen    414668116                       # Per-requestor read total memory access latency (Tick)
system.mem_ctrl.requestorWriteTotalLat::writebacks  17366865622                       # Per-requestor write total memory access latency (Tick)
system.mem_ctrl.requestorWriteTotalLat::tgen   7651143750                       # Per-requestor write total memory access latency (Tick)
system.mem_ctrl.requestorReadAvgLat::tgen     34284.26                       # Per-requestor read average memory access latency ((Tick/Count))
system.mem_ctrl.requestorWriteAvgLat::writebacks    869604.21                       # Per-requestor write average memory access latency ((Tick/Count))
system.mem_ctrl.requestorWriteAvgLat::tgen    912153.52                       # Per-requestor write average memory access latency ((Tick/Count))
system.mem_ctrl.dram.bytesRead::tgen           774080                       # Number of bytes read from this memory (Byte)
system.mem_ctrl.dram.bytesRead::total          774080                       # Number of bytes read from this memory (Byte)
system.mem_ctrl.dram.bytesWritten::writebacks      1278144                       # Number of bytes written to this memory (Byte)
system.mem_ctrl.dram.bytesWritten::tgen        536832                       # Number of bytes written to this memory (Byte)
system.mem_ctrl.dram.bytesWritten::total      1814976                       # Number of bytes written to this memory (Byte)
system.mem_ctrl.dram.numReads::tgen             12095                       # Number of read requests responded to by this memory (Count)
system.mem_ctrl.dram.numReads::total            12095                       # Number of read requests responded to by this memory (Count)
system.mem_ctrl.dram.numWrites::writebacks        19971                       # Number of write requests responded to by this memory (Count)
system.mem_ctrl.dram.numWrites::tgen             8388                       # Number of write requests responded to by this memory (Count)
system.mem_ctrl.dram.numWrites::total           28359                       # Number of write requests responded to by this memory (Count)
system.mem_ctrl.dram.bwRead::tgen           774011887                       # Total read bandwidth from this memory ((Byte/Second))
system.mem_ctrl.dram.bwRead::total          774011887                       # Total read bandwidth from this memory ((Byte/Second))
system.mem_ctrl.dram.bwWrite::writebacks   1278031533                       # Write bandwidth from this memory ((Byte/Second))
system.mem_ctrl.dram.bwWrite::tgen          536784763                       # Write bandwidth from this memory ((Byte/Second))
system.mem_ctrl.dram.bwWrite::total        1814816296                       # Write bandwidth from this memory ((Byte/Second))
system.mem_ctrl.dram.bwTotal::writebacks   1278031533                       # Total bandwidth to/from this memory ((Byte/Second))
system.mem_ctrl.dram.bwTotal::tgen         1310796650                       # Total bandwidth to/from this memory ((Byte/Second))
system.mem_ctrl.dram.bwTotal::total        2588828183                       # Total bandwidth to/from this memory ((Byte/Second))
system.mem_ctrl.dram.readBursts                 12095                       # Number of DRAM read bursts (Count)
system.mem_ctrl.dram.writeBursts                28043                       # Number of DRAM write bursts (Count)
system.mem_ctrl.dram.perBankRdBursts::0           383                       # Per bank write bursts (Count)
system.mem_ctrl.dram.perBankRdBursts::1           384                       # Per bank write bursts (Count)
system.mem_ctrl.dram.perBankRdBursts::2           378                       # Per bank write bursts (Count)
system.mem_ctrl.dram.perBankRdBursts::3           364                       # Per bank write bursts (Count)
system.mem_ctrl.dram.perBankRdBursts::4           364                       # Per bank write bursts (Count)
system.mem_ctrl.dram.perBankRdBursts::5           378                       # Per bank write bursts (Count)
system.mem_ctrl.dram.perBankRdBursts::6           379                       # Per bank write bursts (Count)
system.mem_ctrl.dram.perBankRdBursts::7           366                       # Per bank write bursts (Count)
system.mem_ctrl.dram.perBankRdBursts::8           389                       # Per bank write bursts (Count)
system.mem_ctrl.dram.perBankRdBursts::9           374                       # Per bank write bursts (Count)
system.mem_ctrl.dram.perBankRdBursts::10          364                       # Per bank write bursts (Count)
system.mem_ctrl.dram.perBankRdBursts::11          380                       # Per bank write bursts (Count)
system.mem_ctrl.dram.perBankRdBursts::12          369                       # Per bank write bursts (Count)
system.mem_ctrl.dram.perBankRdBursts::13          391                       # Per bank write bursts (Count)
system.mem_ctrl.dram.perBankRdBursts::14          369                       # Per bank write bursts (Count)
system.mem_ctrl.dram.perBankRdBursts::15          384                       # Per bank write bursts (Count)
system.mem_ctrl.dram.perBankRdBursts::16          371                       # Per bank write bursts (Count)
system.mem_ctrl.dram.perBankRdBursts::17          380                       # Per bank write bursts (Count)
system.mem_ctrl.dram.perBankRdBursts::18          390                       # Per bank write bursts (Count)
system.mem_ctrl.dram.perBankRdBursts::19          377                       # Per bank write bursts (Count)
system.mem_ctrl.dram.perBankRdBursts::20          378                       # Per bank write bursts (Count)
system.mem_ctrl.dram.perBankRdBursts::21          389                       # Per bank write bursts (Count)
system.mem_ctrl.dram.perBankRdBursts::22          383                       # Per bank write bursts (Count)
system.mem_ctrl.dram.perBankRdBursts::23          369                       # Per bank write bursts (Count)
system.mem_ctrl.dram.perBankRdBursts::24          388                       # Per bank write bursts (Count)
system.mem_ctrl.dram.perBankRdBursts::25          379                       # Per bank write bursts (Count)
system.mem_ctrl.dram.perBankRdBursts::26          372                       # Per bank write bursts (Count)
system.mem_ctrl.dram.perBankRdBursts::27          390                       # Per bank write bursts (Count)
system.mem_ctrl.dram.perBankRdBursts::28          381                       # Per bank write bursts (Count)
system.mem_ctrl.dram.perBankRdBursts::29          376                       # Per bank write bursts (Count)
system.mem_ctrl.dram.perBankRdBursts::30          370                       # Per bank write bursts (Count)
system.mem_ctrl.dram.perBankRdBursts::31          386                       # Per bank write bursts (Count)
system.mem_ctrl.dram.perBankWrBursts::0           893                       # Per bank write bursts (Count)
system.mem_ctrl.dram.perBankWrBursts::1           892                       # Per bank write bursts (Count)
system.mem_ctrl.dram.perBankWrBursts::2           891                       # Per bank write bursts (Count)
system.mem_ctrl.dram.perBankWrBursts::3           900                       # Per bank write bursts (Count)
system.mem_ctrl.dram.perBankWrBursts::4           907                       # Per bank write bursts (Count)
system.mem_ctrl.dram.perBankWrBursts::5           893                       # Per bank write bursts (Count)
system.mem_ctrl.dram.perBankWrBursts::6           888                       # Per bank write bursts (Count)
system.mem_ctrl.dram.perBankWrBursts::7           900                       # Per bank write bursts (Count)
system.mem_ctrl.dram.perBankWrBursts::8           880                       # Per bank write bursts (Count)
system.mem_ctrl.dram.perBankWrBursts::9           891                       # Per bank write bursts (Count)
system.mem_ctrl.dram.perBankWrBursts::10          908                       # Per bank write bursts (Count)
system.mem_ctrl.dram.perBankWrBursts::11          891                       # Per bank write bursts (Count)
system.mem_ctrl.dram.perBankWrBursts::12          900                       # Per bank write bursts (Count)
system.mem_ctrl.dram.perBankWrBursts::13          879                       # Per bank write bursts (Count)
system.mem_ctrl.dram.perBankWrBursts::14          903                       # Per bank write bursts (Count)
system.mem_ctrl.dram.perBankWrBursts::15          882                       # Per bank write bursts (Count)
system.mem_ctrl.dram.perBankWrBursts::16          896                       # Per bank write bursts (Count)
system.mem_ctrl.dram.perBankWrBursts::17          882                       # Per bank write bursts (Count)
system.mem_ctrl.dram.perBankWrBursts::18          870                       # Per bank write bursts (Count)
system.mem_ctrl.dram.perBankWrBursts::19          887                       # Per bank write bursts (Count)
system.mem_ctrl.dram.perBankWrBursts::20          887                       # Per bank write bursts (Count)
system.mem_ctrl.dram.perBankWrBursts::21          869                       # Per bank write bursts (Count)
system.mem_ctrl.dram.perBankWrBursts::22          870                       # Per bank write bursts (Count)
system.mem_ctrl.dram.perBankWrBursts::23          879                       # Per bank write bursts (Count)
system.mem_ctrl.dram.perBankWrBursts::24          865                       # Per bank write bursts (Count)
system.mem_ctrl.dram.perBankWrBursts::25          864                       # Per bank write bursts (Count)
system.mem_ctrl.dram.perBankWrBursts::26          871                       # Per bank write bursts (Count)
system.mem_ctrl.dram.perBankWrBursts::27          850                       # Per bank write bursts (Count)
system.mem_ctrl.dram.perBankWrBursts::28          849                       # Per bank write bursts (Count)
system.mem_ctrl.dram.perBankWrBursts::29          824                       # Per bank write bursts (Count)
system.mem_ctrl.dram.perBankWrBursts::30          818                       # Per bank write bursts (Count)
system.mem_ctrl.dram.perBankWrBursts::31          764                       # Per bank write bursts (Count)
system.mem_ctrl.dram.totQLat                203102376                       # Total ticks spent queuing (Tick)
system.mem_ctrl.dram.totBusLat               40300540                       # Total ticks spent in databus transfers (Tick)
system.mem_ctrl.dram.totMemAccLat           414668116                       # Total ticks spent from burst creation until serviced by the DRAM (Tick)
system.mem_ctrl.dram.avgQLat                 16792.26                       # Average queueing delay per DRAM burst ((Tick/Count))
system.mem_ctrl.dram.avgBusLat                3332.00                       # Average bus latency per DRAM burst ((Tick/Count))
system.mem_ctrl.dram.avgMemAccLat            34284.26                       # Average memory access latency per DRAM burst ((Tick/Count))
system.mem_ctrl.dram.readRowHits                11161                       # Number of row buffer hits during reads (Count)
system.mem_ctrl.dram.writeRowHits               24676                       # Number of row buffer hits during writes (Count)
system.mem_ctrl.dram.readRowHitRate             92.28                       # Row buffer hit rate for reads (Ratio)
system.mem_ctrl.dram.writeRowHitRate            87.99                       # Row buffer hit rate for writes (Ratio)
system.mem_ctrl.dram.bytesPerActivate::samples         4283                       # Bytes accessed per row activation (Byte)
system.mem_ctrl.dram.bytesPerActivate::mean   598.967079                       # Bytes accessed per row activation (Byte)
system.mem_ctrl.dram.bytesPerActivate::gmean   390.083543                       # Bytes accessed per row activation (Byte)
system.mem_ctrl.dram.bytesPerActivate::stdev   411.683342                       # Bytes accessed per row activation (Byte)
system.mem_ctrl.dram.bytesPerActivate::0-127          761     17.77%     17.77% # Bytes accessed per row activation (Byte)
system.mem_ctrl.dram.bytesPerActivate::128-255          610     14.24%     32.01% # Bytes accessed per row activation (Byte)
system.mem_ctrl.dram.bytesPerActivate::256-383          335      7.82%     39.83% # Bytes accessed per row activation (Byte)
system.mem_ctrl.dram.bytesPerActivate::384-511          220      5.14%     44.97% # Bytes accessed per row activation (Byte)
system.mem_ctrl.dram.bytesPerActivate::512-639          189      4.41%     49.38% # Bytes accessed per row activation (Byte)
system.mem_ctrl.dram.bytesPerActivate::640-767          133      3.11%     52.49% # Bytes accessed per row activation (Byte)
system.mem_ctrl.dram.bytesPerActivate::768-895          117      2.73%     55.22% # Bytes accessed per row activation (Byte)
system.mem_ctrl.dram.bytesPerActivate::896-1023          115      2.69%     57.90% # Bytes accessed per row activation (Byte)
system.mem_ctrl.dram.bytesPerActivate::1024-1151         1803     42.10%    100.00% # Bytes accessed per row activation (Byte)
system.mem_ctrl.dram.bytesPerActivate::total         4283                       # Bytes accessed per row activation (Byte)
system.mem_ctrl.dram.dramBytesRead             774080                       # Total bytes read (Byte)
system.mem_ctrl.dram.dramBytesWritten         1794752                       # Total bytes written (Byte)
system.mem_ctrl.dram.avgRdBW               774.011887                       # Average DRAM read bandwidth in MiBytes/s ((Byte/Second))
system.mem_ctrl.dram.avgWrBW              1794.594076                       # Average DRAM write bandwidth in MiBytes/s ((Byte/Second))
system.mem_ctrl.dram.peakBW                  19207.00                       # Theoretical peak bandwidth in MiByte/s ((Byte/Second))
system.mem_ctrl.dram.busUtil                    13.37                       # Data bus utilization in percentage (Ratio)
system.mem_ctrl.dram.busUtilRead                 4.03                       # Data bus utilization in percentage for reads (Ratio)
system.mem_ctrl.dram.busUtilWrite                9.34                       # Data bus utilization in percentage for writes (Ratio)
system.mem_ctrl.dram.pageHitRate                89.28                       # Row buffer hit rate, read and write combined (Ratio)
system.mem_ctrl.dram.power_state.pwrStateResidencyTicks::UNDEFINED   1000088000                       # Cumulative time (in ticks) in various power states (Tick)
system.mem_ctrl.dram.rank0.actEnergy     6886204.416000                       # Energy for activate commands per rank (pJ) (Joule)
system.mem_ctrl.dram.rank0.preEnergy     9138535.123200                       # Energy for precharge commands per rank (pJ) (Joule)
system.mem_ctrl.dram.rank0.readEnergy    25305201.868800                       # Energy for read commands per rank (pJ) (Joule)
system.mem_ctrl.dram.rank0.writeEnergy   53738975.808000                       # Energy for write commands per rank (pJ) (Joule)
system.mem_ctrl.dram.rank0.refreshEnergy 177328336.281601                       # Energy for refresh commands per rank (pJ) (Joule)
system.mem_ctrl.dram.rank0.actBackEnergy 812935887.523200                       # Energy for active background per rank (pJ) (Joule)
system.mem_ctrl.dram.rank0.preBackEnergy 28228831.948800                       # Energy for precharge background per rank (pJ) (Joule)
system.mem_ctrl.dram.rank0.actPowerDownEnergy            0                       # Energy for active power-down per rank (pJ) (Joule)
system.mem_ctrl.dram.rank0.prePowerDownEnergy            0                       # Energy for precharge power-down per rank (pJ) (Joule)
system.mem_ctrl.dram.rank0.selfRefreshEnergy            0                       # Energy for self refresh per rank (pJ) (Joule)
system.mem_ctrl.dram.rank0.totalEnergy   1113561972.969600                       # Total energy per rank (pJ) (Joule)
system.mem_ctrl.dram.rank0.averagePower   1113.463988                       # Core power per rank (mW) (Watt)
system.mem_ctrl.dram.rank0.totalIdleTime            0                       # Total Idle time Per DRAM Rank (Tick)
system.mem_ctrl.dram.rank0.pwrStateTime::IDLE     39578244                       # Time in different power states (Tick)
system.mem_ctrl.dram.rank0.pwrStateTime::REF     44800000                       # Time in different power states (Tick)
system.mem_ctrl.dram.rank0.pwrStateTime::SREF            0                       # Time in different power states (Tick)
system.mem_ctrl.dram.rank0.pwrStateTime::PRE_PDN            0                       # Time in different power states (Tick)
system.mem_ctrl.dram.rank0.pwrStateTime::ACT    915709756                       # Time in different power states (Tick)
system.mem_ctrl.dram.rank0.pwrStateTime::ACT_PDN            0                       # Time in different power states (Tick)
system.mem_ctrl.dram.rank1.actEnergy     6527547.936000                       # Energy for activate commands per rank (pJ) (Joule)
system.mem_ctrl.dram.rank1.preEnergy     8620242.523200                       # Energy for precharge commands per rank (pJ) (Joule)
system.mem_ctrl.dram.rank1.readEnergy    25570199.827200                       # Energy for read commands per rank (pJ) (Joule)
system.mem_ctrl.dram.rank1.writeEnergy   51660527.520000                       # Energy for write commands per rank (pJ) (Joule)
system.mem_ctrl.dram.rank1.refreshEnergy 177328336.281601                       # Energy for refresh commands per rank (pJ) (Joule)
system.mem_ctrl.dram.rank1.actBackEnergy 746413339.190400                       # Energy for active background per rank (pJ) (Joule)
system.mem_ctrl.dram.rank1.preBackEnergy 79342202.419200                       # Energy for precharge background per rank (pJ) (Joule)
system.mem_ctrl.dram.rank1.actPowerDownEnergy            0                       # Energy for active power-down per rank (pJ) (Joule)
system.mem_ctrl.dram.rank1.prePowerDownEnergy            0                       # Energy for precharge power-down per rank (pJ) (Joule)
system.mem_ctrl.dram.rank1.selfRefreshEnergy            0                       # Energy for self refresh per rank (pJ) (Joule)
system.mem_ctrl.dram.rank1.totalEnergy   1095462395.697600                       # Total energy per rank (pJ) (Joule)
system.mem_ctrl.dram.rank1.averagePower   1095.366003                       # Core power per rank (mW) (Watt)
system.mem_ctrl.dram.rank1.totalIdleTime            0                       # Total Idle time Per DRAM Rank (Tick)
system.mem_ctrl.dram.rank1.pwrStateTime::IDLE    118018042                       # Time in different power states (Tick)
system.mem_ctrl.dram.rank1.pwrStateTime::REF     44800000                       # Time in different power states (Tick)
system.mem_ctrl.dram.rank1.pwrStateTime::SREF            0                       # Time in different power states (Tick)
system.mem_ctrl.dram.rank1.pwrStateTime::PRE_PDN            0                       # Time in different power states (Tick)
system.mem_ctrl.dram.rank1.pwrStateTime::ACT    837269958                       # Time in different power states (Tick)
system.mem_ctrl.dram.rank1.pwrStateTime::ACT_PDN            0                       # Time in different power states (Tick)
system.mem_ctrl.power_state.pwrStateResidencyTicks::UNDEFINED   1000088000                       # Cumulative time (in ticks) in various power states (Tick)
system.membus.transDist::ReadReq                12095                       # Transaction distribution (Count)
system.membus.transDist::ReadResp               12095                       # Transaction distribution (Count)
system.membus.transDist::WriteReq                8388                       # Transaction distribution (Count)
system.membus.transDist::WriteResp               8388                       # Transaction distribution (Count)
system.membus.transDist::WritebackDirty         19971                       # Transaction distribution (Count)
system.membus.pktCount_system.comm_monitor-mem_side_port::system.mem_ctrl.port        60937                       # Packet count per connected requestor and responder (Count)
system.membus.pktSize_system.comm_monitor-mem_side_port::system.mem_ctrl.port      2589056                       # Cumulative packet size per connected requestor and responder (Byte)
system.membus.snoops                                0                       # Total snoops (Count)
system.membus.snoopTraffic                          0                       # Total snoop traffic (Byte)
system.membus.snoopFanout::samples              20483                       # Request fanout histogram (Count)
system.membus.snoopFanout::mean                     0                       # Request fanout histogram (Count)
system.membus.snoopFanout::stdev                    0                       # Request fanout histogram (Count)
system.membus.snoopFanout::underflows               0      0.00%      0.00% # Request fanout histogram (Count)
system.membus.snoopFanout::0                    20483    100.00%    100.00% # Request fanout histogram (Count)
system.membus.snoopFanout::overflows                0      0.00%    100.00% # Request fanout histogram (Count)
system.membus.snoopFanout::min_value                0                       # Request fanout histogram (Count)
system.membus.snoopFanout::max_value                0                       # Request fanout histogram (Count)
system.membus.snoopFanout::total                20483                       # Request fanout histogram (Count)
system.membus.power_state.pwrStateResidencyTicks::UNDEFINED   1000088000                       # Cumulative time (in ticks) in various power states (Tick)
system.membus.reqLayer0.occupancy            68813000                       # Layer occupancy (ticks) (Tick)
system.membus.reqLayer0.utilization               0.1                       # Layer utilization (Ratio)
system.membus.respLayer0.occupancy           38534884                       # Layer occupancy (ticks) (Tick)
system.membus.respLayer0.utilization              0.0                       # Layer utilization (Ratio)
system.membus.snoop_filter.totRequests              0                       # Total number of requests made to the snoop filter. (Count)
system.membus.snoop_filter.hitSingleRequests            0                       # Number of requests hitting in the snoop filter with a single holder of the requested data. (Count)
system.membus.snoop_filter.hitMultiRequests            0                       # Number of requests hitting in the snoop filter with multiple (>1) holders of the requested data. (Count)
system.membus.snoop_filter.totSnoops                0                       # Total number of snoops made to the snoop filter. (Count)
system.membus.snoop_filter.hitSingleSnoops            0                       # Number of snoops hitting in the snoop filter with a single holder of the requested data. (Count)
system.membus.snoop_filter.hitMultiSnoops            0                       # Number of snoops hitting in the snoop filter with multiple (>1) holders of the requested data. (Count)
system.tgen.numSuppressed                           0                       # Number of suppressed packets to non-memory space (Count)
system.tgen.numPackets                          20484                       # Number of packets generated (Count)
system.tgen.numRetries                          20483                       # Number of retries (Count)
system.tgen.retryTicks                     1000064000                       # Time spent waiting due to back-pressure (Tick)
system.tgen.bytesRead                          774080                       # Number of bytes read (Byte)
system.tgen.bytesWritten                       536832                       # Number of bytes written (Byte)
system.tgen.totalReadLatency               1398408000                       # Total latency of read requests (Tick)
system.tgen.totalWriteLatency               601547000                       # Total latency of write requests (Tick)
system.tgen.totalReads                          12095                       # Total num of reads (Count)
system.tgen.totalWrites                          8388                       # Total num of writes (Count)
system.tgen.avgReadLatency               115618.685407                       # Avg latency of read requests ((Tick/Count))
system.tgen.avgWriteLatency              71715.188364                       # Avg latency of write requests ((Tick/Count))
system.tgen.readBW                       774011886.953948                       # Read bandwidth ((Byte/Second))
system.tgen.writeBW                      536784762.940861                       # Write bandwidth ((Byte/Second))
system.tgen.power_state.pwrStateResidencyTicks::UNDEFINED   1000088000                       # Cumulative time (in ticks) in various power states (Tick)
system.workload.inst.arm                            0                       # number of arm instructions executed (Count)
system.workload.inst.quiesce                        0                       # number of quiesce instructions executed (Count)

---------- End Simulation Statistics   ----------
